<?xml version="1.0" encoding="UTF-8"?>

<!-- generated on 2025-02-26 17:23:05 by Eclipse SUMO netgenerate Version 1.22.0
<netgenerateConfiguration xmlns:xsi="http://www.w3.org/2001/XMLSchema-instance" xsi:noNamespaceSchemaLocation="http://sumo.dlr.de/xsd/netgenerateConfiguration.xsd">

    <grid_network>
        <grid value="true"/>
        <grid.number value="3"/>
        <grid.length value="100"/>
        <grid.attach-length value="50"/>
    </grid_network>

    <output>
        <output-file value="grid.net.xml"/>
    </output>

    <building_defaults>
        <default-junction-type value="traffic_light"/>
    </building_defaults>

    <junctions>
        <no-turnarounds value="true"/>
    </junctions>

    <pedestrian>
        <sidewalks.guess value="true"/>
    </pedestrian>

</netgenerateConfiguration>
-->

<net version="1.20" junctionCornerDetail="5" limitTurnSpeed="5.50" xmlns:xsi="http://www.w3.org/2001/XMLSchema-instance" xsi:noNamespaceSchemaLocation="http://sumo.dlr.de/xsd/net_file.xsd">

    <location netOffset="0.00,0.00" convBoundary="0.00,0.00,300.00,300.00" origBoundary="0.00,0.00,300.00,300.00" projParameter="!"/>

    <edge id=":A0_0" function="internal">
        <lane id=":A0_0_0" index="0" disallow="pedestrian" speed="6.51" length="9.03" shape="48.40,57.20 48.05,54.75 47.00,53.00 45.25,51.95 42.80,51.60"/>
    </edge>
    <edge id=":A0_1" function="internal">
        <lane id=":A0_1_0" index="0" disallow="pedestrian" speed="13.89" length="14.40" shape="48.40,57.20 48.40,42.80"/>
    </edge>
    <edge id=":A0_2" function="internal">
        <lane id=":A0_2_0" index="0" disallow="pedestrian" speed="8.00" length="4.07" shape="48.40,57.20 48.95,53.35 49.04,53.20"/>
    </edge>
    <edge id=":A0_12" function="internal">
        <lane id=":A0_12_0" index="0" disallow="pedestrian" speed="8.00" length="10.13" shape="49.04,53.20 50.60,50.60 53.35,48.95 57.20,48.40"/>
    </edge>
    <edge id=":A0_3" function="internal">
        <lane id=":A0_3_0" index="0" disallow="pedestrian" speed="6.51" length="9.03" shape="57.20,51.60 54.75,51.95 53.00,53.00 51.95,54.75 51.60,57.20"/>
    </edge>
    <edge id=":A0_4" function="internal">
        <lane id=":A0_4_0" index="0" disallow="pedestrian" speed="13.89" length="14.40" shape="57.20,51.60 42.80,51.60"/>
    </edge>
    <edge id=":A0_5" function="internal">
        <lane id=":A0_5_0" index="0" disallow="pedestrian" speed="8.00" length="4.07" shape="57.20,51.60 53.35,51.05 53.20,50.96"/>
    </edge>
    <edge id=":A0_13" function="internal">
        <lane id=":A0_13_0" index="0" disallow="pedestrian" speed="8.00" length="10.13" shape="53.20,50.96 50.60,49.40 48.95,46.65 48.40,42.80"/>
    </edge>
    <edge id=":A0_6" function="internal">
        <lane id=":A0_6_0" index="0" disallow="pedestrian" speed="6.51" length="9.03" shape="51.60,42.80 51.95,45.25 53.00,47.00 54.75,48.05 57.20,48.40"/>
    </edge>
    <edge id=":A0_7" function="internal">
        <lane id=":A0_7_0" index="0" disallow="pedestrian" speed="13.89" length="14.40" shape="51.60,42.80 51.60,57.20"/>
    </edge>
    <edge id=":A0_8" function="internal">
        <lane id=":A0_8_0" index="0" disallow="pedestrian" speed="8.00" length="4.07" shape="51.60,42.80 51.05,46.65 50.96,46.80"/>
    </edge>
    <edge id=":A0_14" function="internal">
        <lane id=":A0_14_0" index="0" disallow="pedestrian" speed="8.00" length="10.13" shape="50.96,46.80 49.40,49.40 46.65,51.05 42.80,51.60"/>
    </edge>
    <edge id=":A0_9" function="internal">
        <lane id=":A0_9_0" index="0" disallow="pedestrian" speed="6.51" length="9.03" shape="42.80,48.40 45.25,48.05 47.00,47.00 48.05,45.25 48.40,42.80"/>
    </edge>
    <edge id=":A0_10" function="internal">
        <lane id=":A0_10_0" index="0" disallow="pedestrian" speed="13.89" length="14.40" shape="42.80,48.40 57.20,48.40"/>
    </edge>
    <edge id=":A0_11" function="internal">
        <lane id=":A0_11_0" index="0" disallow="pedestrian" speed="8.00" length="4.07" shape="42.80,48.40 46.65,48.95 46.80,49.04"/>
    </edge>
    <edge id=":A0_15" function="internal">
        <lane id=":A0_15_0" index="0" disallow="pedestrian" speed="8.00" length="10.13" shape="46.80,49.04 49.40,50.60 51.05,53.35 51.60,57.20"/>
    </edge>
    <edge id=":A1_0" function="internal">
        <lane id=":A1_0_0" index="0" disallow="pedestrian" speed="6.51" length="9.03" shape="48.40,157.20 48.05,154.75 47.00,153.00 45.25,151.95 42.80,151.60"/>
    </edge>
    <edge id=":A1_1" function="internal">
        <lane id=":A1_1_0" index="0" disallow="pedestrian" speed="13.89" length="14.40" shape="48.40,157.20 48.40,142.80"/>
    </edge>
    <edge id=":A1_2" function="internal">
        <lane id=":A1_2_0" index="0" disallow="pedestrian" speed="8.00" length="4.07" shape="48.40,157.20 48.95,153.35 49.04,153.20"/>
    </edge>
    <edge id=":A1_12" function="internal">
        <lane id=":A1_12_0" index="0" disallow="pedestrian" speed="8.00" length="10.13" shape="49.04,153.20 50.60,150.60 53.35,148.95 57.20,148.40"/>
    </edge>
    <edge id=":A1_3" function="internal">
        <lane id=":A1_3_0" index="0" disallow="pedestrian" speed="6.51" length="9.03" shape="57.20,151.60 54.75,151.95 53.00,153.00 51.95,154.75 51.60,157.20"/>
    </edge>
    <edge id=":A1_4" function="internal">
        <lane id=":A1_4_0" index="0" disallow="pedestrian" speed="13.89" length="14.40" shape="57.20,151.60 42.80,151.60"/>
    </edge>
    <edge id=":A1_5" function="internal">
        <lane id=":A1_5_0" index="0" disallow="pedestrian" speed="8.00" length="4.07" shape="57.20,151.60 53.35,151.05 53.20,150.96"/>
    </edge>
    <edge id=":A1_13" function="internal">
        <lane id=":A1_13_0" index="0" disallow="pedestrian" speed="8.00" length="10.13" shape="53.20,150.96 50.60,149.40 48.95,146.65 48.40,142.80"/>
    </edge>
    <edge id=":A1_6" function="internal">
        <lane id=":A1_6_0" index="0" disallow="pedestrian" speed="6.51" length="9.03" shape="51.60,142.80 51.95,145.25 53.00,147.00 54.75,148.05 57.20,148.40"/>
    </edge>
    <edge id=":A1_7" function="internal">
        <lane id=":A1_7_0" index="0" disallow="pedestrian" speed="13.89" length="14.40" shape="51.60,142.80 51.60,157.20"/>
    </edge>
    <edge id=":A1_8" function="internal">
        <lane id=":A1_8_0" index="0" disallow="pedestrian" speed="8.00" length="4.07" shape="51.60,142.80 51.05,146.65 50.96,146.80"/>
    </edge>
    <edge id=":A1_14" function="internal">
        <lane id=":A1_14_0" index="0" disallow="pedestrian" speed="8.00" length="10.13" shape="50.96,146.80 49.40,149.40 46.65,151.05 42.80,151.60"/>
    </edge>
    <edge id=":A1_9" function="internal">
        <lane id=":A1_9_0" index="0" disallow="pedestrian" speed="6.51" length="9.03" shape="42.80,148.40 45.25,148.05 47.00,147.00 48.05,145.25 48.40,142.80"/>
    </edge>
    <edge id=":A1_10" function="internal">
        <lane id=":A1_10_0" index="0" disallow="pedestrian" speed="13.89" length="14.40" shape="42.80,148.40 57.20,148.40"/>
    </edge>
    <edge id=":A1_11" function="internal">
        <lane id=":A1_11_0" index="0" disallow="pedestrian" speed="8.00" length="4.07" shape="42.80,148.40 46.65,148.95 46.80,149.04"/>
    </edge>
    <edge id=":A1_15" function="internal">
        <lane id=":A1_15_0" index="0" disallow="pedestrian" speed="8.00" length="10.13" shape="46.80,149.04 49.40,150.60 51.05,153.35 51.60,157.20"/>
    </edge>
    <edge id=":A2_0" function="internal">
        <lane id=":A2_0_0" index="0" disallow="pedestrian" speed="6.51" length="9.03" shape="48.40,257.20 48.05,254.75 47.00,253.00 45.25,251.95 42.80,251.60"/>
    </edge>
    <edge id=":A2_1" function="internal">
        <lane id=":A2_1_0" index="0" disallow="pedestrian" speed="13.89" length="14.40" shape="48.40,257.20 48.40,242.80"/>
    </edge>
    <edge id=":A2_2" function="internal">
        <lane id=":A2_2_0" index="0" disallow="pedestrian" speed="8.00" length="4.07" shape="48.40,257.20 48.95,253.35 49.04,253.20"/>
    </edge>
    <edge id=":A2_12" function="internal">
        <lane id=":A2_12_0" index="0" disallow="pedestrian" speed="8.00" length="10.13" shape="49.04,253.20 50.60,250.60 53.35,248.95 57.20,248.40"/>
    </edge>
    <edge id=":A2_3" function="internal">
        <lane id=":A2_3_0" index="0" disallow="pedestrian" speed="6.51" length="9.03" shape="57.20,251.60 54.75,251.95 53.00,253.00 51.95,254.75 51.60,257.20"/>
    </edge>
    <edge id=":A2_4" function="internal">
        <lane id=":A2_4_0" index="0" disallow="pedestrian" speed="13.89" length="14.40" shape="57.20,251.60 42.80,251.60"/>
    </edge>
    <edge id=":A2_5" function="internal">
        <lane id=":A2_5_0" index="0" disallow="pedestrian" speed="8.00" length="4.07" shape="57.20,251.60 53.35,251.05 53.20,250.96"/>
    </edge>
    <edge id=":A2_13" function="internal">
        <lane id=":A2_13_0" index="0" disallow="pedestrian" speed="8.00" length="10.13" shape="53.20,250.96 50.60,249.40 48.95,246.65 48.40,242.80"/>
    </edge>
    <edge id=":A2_6" function="internal">
        <lane id=":A2_6_0" index="0" disallow="pedestrian" speed="6.51" length="9.03" shape="51.60,242.80 51.95,245.25 53.00,247.00 54.75,248.05 57.20,248.40"/>
    </edge>
    <edge id=":A2_7" function="internal">
        <lane id=":A2_7_0" index="0" disallow="pedestrian" speed="13.89" length="14.40" shape="51.60,242.80 51.60,257.20"/>
    </edge>
    <edge id=":A2_8" function="internal">
        <lane id=":A2_8_0" index="0" disallow="pedestrian" speed="8.00" length="4.07" shape="51.60,242.80 51.05,246.65 50.96,246.80"/>
    </edge>
    <edge id=":A2_14" function="internal">
        <lane id=":A2_14_0" index="0" disallow="pedestrian" speed="8.00" length="10.13" shape="50.96,246.80 49.40,249.40 46.65,251.05 42.80,251.60"/>
    </edge>
    <edge id=":A2_9" function="internal">
        <lane id=":A2_9_0" index="0" disallow="pedestrian" speed="6.51" length="9.03" shape="42.80,248.40 45.25,248.05 47.00,247.00 48.05,245.25 48.40,242.80"/>
    </edge>
    <edge id=":A2_10" function="internal">
        <lane id=":A2_10_0" index="0" disallow="pedestrian" speed="13.89" length="14.40" shape="42.80,248.40 57.20,248.40"/>
    </edge>
    <edge id=":A2_11" function="internal">
        <lane id=":A2_11_0" index="0" disallow="pedestrian" speed="8.00" length="4.07" shape="42.80,248.40 46.65,248.95 46.80,249.04"/>
    </edge>
    <edge id=":A2_15" function="internal">
        <lane id=":A2_15_0" index="0" disallow="pedestrian" speed="8.00" length="10.13" shape="46.80,249.04 49.40,250.60 51.05,253.35 51.60,257.20"/>
    </edge>
    <edge id=":B0_0" function="internal">
        <lane id=":B0_0_0" index="0" disallow="pedestrian" speed="6.51" length="9.03" shape="148.40,57.20 148.05,54.75 147.00,53.00 145.25,51.95 142.80,51.60"/>
    </edge>
    <edge id=":B0_1" function="internal">
        <lane id=":B0_1_0" index="0" disallow="pedestrian" speed="13.89" length="14.40" shape="148.40,57.20 148.40,42.80"/>
    </edge>
    <edge id=":B0_2" function="internal">
        <lane id=":B0_2_0" index="0" disallow="pedestrian" speed="8.00" length="4.07" shape="148.40,57.20 148.95,53.35 149.04,53.20"/>
    </edge>
    <edge id=":B0_12" function="internal">
        <lane id=":B0_12_0" index="0" disallow="pedestrian" speed="8.00" length="10.13" shape="149.04,53.20 150.60,50.60 153.35,48.95 157.20,48.40"/>
    </edge>
    <edge id=":B0_3" function="internal">
        <lane id=":B0_3_0" index="0" disallow="pedestrian" speed="6.51" length="9.03" shape="157.20,51.60 154.75,51.95 153.00,53.00 151.95,54.75 151.60,57.20"/>
    </edge>
    <edge id=":B0_4" function="internal">
        <lane id=":B0_4_0" index="0" disallow="pedestrian" speed="13.89" length="14.40" shape="157.20,51.60 142.80,51.60"/>
    </edge>
    <edge id=":B0_5" function="internal">
        <lane id=":B0_5_0" index="0" disallow="pedestrian" speed="8.00" length="4.07" shape="157.20,51.60 153.35,51.05 153.20,50.96"/>
    </edge>
    <edge id=":B0_13" function="internal">
        <lane id=":B0_13_0" index="0" disallow="pedestrian" speed="8.00" length="10.13" shape="153.20,50.96 150.60,49.40 148.95,46.65 148.40,42.80"/>
    </edge>
    <edge id=":B0_6" function="internal">
        <lane id=":B0_6_0" index="0" disallow="pedestrian" speed="6.51" length="9.03" shape="151.60,42.80 151.95,45.25 153.00,47.00 154.75,48.05 157.20,48.40"/>
    </edge>
    <edge id=":B0_7" function="internal">
        <lane id=":B0_7_0" index="0" disallow="pedestrian" speed="13.89" length="14.40" shape="151.60,42.80 151.60,57.20"/>
    </edge>
    <edge id=":B0_8" function="internal">
        <lane id=":B0_8_0" index="0" disallow="pedestrian" speed="8.00" length="4.07" shape="151.60,42.80 151.05,46.65 150.96,46.80"/>
    </edge>
    <edge id=":B0_14" function="internal">
        <lane id=":B0_14_0" index="0" disallow="pedestrian" speed="8.00" length="10.13" shape="150.96,46.80 149.40,49.40 146.65,51.05 142.80,51.60"/>
    </edge>
    <edge id=":B0_9" function="internal">
        <lane id=":B0_9_0" index="0" disallow="pedestrian" speed="6.51" length="9.03" shape="142.80,48.40 145.25,48.05 147.00,47.00 148.05,45.25 148.40,42.80"/>
    </edge>
    <edge id=":B0_10" function="internal">
        <lane id=":B0_10_0" index="0" disallow="pedestrian" speed="13.89" length="14.40" shape="142.80,48.40 157.20,48.40"/>
    </edge>
    <edge id=":B0_11" function="internal">
        <lane id=":B0_11_0" index="0" disallow="pedestrian" speed="8.00" length="4.07" shape="142.80,48.40 146.65,48.95 146.80,49.04"/>
    </edge>
    <edge id=":B0_15" function="internal">
        <lane id=":B0_15_0" index="0" disallow="pedestrian" speed="8.00" length="10.13" shape="146.80,49.04 149.40,50.60 151.05,53.35 151.60,57.20"/>
    </edge>
    <edge id=":B1_0" function="internal">
        <lane id=":B1_0_0" index="0" disallow="pedestrian" speed="6.51" length="9.03" shape="148.40,157.20 148.05,154.75 147.00,153.00 145.25,151.95 142.80,151.60"/>
    </edge>
    <edge id=":B1_1" function="internal">
        <lane id=":B1_1_0" index="0" disallow="pedestrian" speed="13.89" length="14.40" shape="148.40,157.20 148.40,142.80"/>
    </edge>
    <edge id=":B1_2" function="internal">
        <lane id=":B1_2_0" index="0" disallow="pedestrian" speed="8.00" length="4.07" shape="148.40,157.20 148.95,153.35 149.04,153.20"/>
    </edge>
    <edge id=":B1_12" function="internal">
        <lane id=":B1_12_0" index="0" disallow="pedestrian" speed="8.00" length="10.13" shape="149.04,153.20 150.60,150.60 153.35,148.95 157.20,148.40"/>
    </edge>
    <edge id=":B1_3" function="internal">
        <lane id=":B1_3_0" index="0" disallow="pedestrian" speed="6.51" length="9.03" shape="157.20,151.60 154.75,151.95 153.00,153.00 151.95,154.75 151.60,157.20"/>
    </edge>
    <edge id=":B1_4" function="internal">
        <lane id=":B1_4_0" index="0" disallow="pedestrian" speed="13.89" length="14.40" shape="157.20,151.60 142.80,151.60"/>
    </edge>
    <edge id=":B1_5" function="internal">
        <lane id=":B1_5_0" index="0" disallow="pedestrian" speed="8.00" length="4.07" shape="157.20,151.60 153.35,151.05 153.20,150.96"/>
    </edge>
    <edge id=":B1_13" function="internal">
        <lane id=":B1_13_0" index="0" disallow="pedestrian" speed="8.00" length="10.13" shape="153.20,150.96 150.60,149.40 148.95,146.65 148.40,142.80"/>
    </edge>
    <edge id=":B1_6" function="internal">
        <lane id=":B1_6_0" index="0" disallow="pedestrian" speed="6.51" length="9.03" shape="151.60,142.80 151.95,145.25 153.00,147.00 154.75,148.05 157.20,148.40"/>
    </edge>
    <edge id=":B1_7" function="internal">
        <lane id=":B1_7_0" index="0" disallow="pedestrian" speed="13.89" length="14.40" shape="151.60,142.80 151.60,157.20"/>
    </edge>
    <edge id=":B1_8" function="internal">
        <lane id=":B1_8_0" index="0" disallow="pedestrian" speed="8.00" length="4.07" shape="151.60,142.80 151.05,146.65 150.96,146.80"/>
    </edge>
    <edge id=":B1_14" function="internal">
        <lane id=":B1_14_0" index="0" disallow="pedestrian" speed="8.00" length="10.13" shape="150.96,146.80 149.40,149.40 146.65,151.05 142.80,151.60"/>
    </edge>
    <edge id=":B1_9" function="internal">
        <lane id=":B1_9_0" index="0" disallow="pedestrian" speed="6.51" length="9.03" shape="142.80,148.40 145.25,148.05 147.00,147.00 148.05,145.25 148.40,142.80"/>
    </edge>
    <edge id=":B1_10" function="internal">
        <lane id=":B1_10_0" index="0" disallow="pedestrian" speed="13.89" length="14.40" shape="142.80,148.40 157.20,148.40"/>
    </edge>
    <edge id=":B1_11" function="internal">
        <lane id=":B1_11_0" index="0" disallow="pedestrian" speed="8.00" length="4.07" shape="142.80,148.40 146.65,148.95 146.80,149.04"/>
    </edge>
    <edge id=":B1_15" function="internal">
        <lane id=":B1_15_0" index="0" disallow="pedestrian" speed="8.00" length="10.13" shape="146.80,149.04 149.40,150.60 151.05,153.35 151.60,157.20"/>
    </edge>
    <edge id=":B2_0" function="internal">
        <lane id=":B2_0_0" index="0" disallow="pedestrian" speed="6.51" length="9.03" shape="148.40,257.20 148.05,254.75 147.00,253.00 145.25,251.95 142.80,251.60"/>
    </edge>
    <edge id=":B2_1" function="internal">
        <lane id=":B2_1_0" index="0" disallow="pedestrian" speed="13.89" length="14.40" shape="148.40,257.20 148.40,242.80"/>
    </edge>
    <edge id=":B2_2" function="internal">
        <lane id=":B2_2_0" index="0" disallow="pedestrian" speed="8.00" length="4.07" shape="148.40,257.20 148.95,253.35 149.04,253.20"/>
    </edge>
    <edge id=":B2_12" function="internal">
        <lane id=":B2_12_0" index="0" disallow="pedestrian" speed="8.00" length="10.13" shape="149.04,253.20 150.60,250.60 153.35,248.95 157.20,248.40"/>
    </edge>
    <edge id=":B2_3" function="internal">
        <lane id=":B2_3_0" index="0" disallow="pedestrian" speed="6.51" length="9.03" shape="157.20,251.60 154.75,251.95 153.00,253.00 151.95,254.75 151.60,257.20"/>
    </edge>
    <edge id=":B2_4" function="internal">
        <lane id=":B2_4_0" index="0" disallow="pedestrian" speed="13.89" length="14.40" shape="157.20,251.60 142.80,251.60"/>
    </edge>
    <edge id=":B2_5" function="internal">
        <lane id=":B2_5_0" index="0" disallow="pedestrian" speed="8.00" length="4.07" shape="157.20,251.60 153.35,251.05 153.20,250.96"/>
    </edge>
    <edge id=":B2_13" function="internal">
        <lane id=":B2_13_0" index="0" disallow="pedestrian" speed="8.00" length="10.13" shape="153.20,250.96 150.60,249.40 148.95,246.65 148.40,242.80"/>
    </edge>
    <edge id=":B2_6" function="internal">
        <lane id=":B2_6_0" index="0" disallow="pedestrian" speed="6.51" length="9.03" shape="151.60,242.80 151.95,245.25 153.00,247.00 154.75,248.05 157.20,248.40"/>
    </edge>
    <edge id=":B2_7" function="internal">
        <lane id=":B2_7_0" index="0" disallow="pedestrian" speed="13.89" length="14.40" shape="151.60,242.80 151.60,257.20"/>
    </edge>
    <edge id=":B2_8" function="internal">
        <lane id=":B2_8_0" index="0" disallow="pedestrian" speed="8.00" length="4.07" shape="151.60,242.80 151.05,246.65 150.96,246.80"/>
    </edge>
    <edge id=":B2_14" function="internal">
        <lane id=":B2_14_0" index="0" disallow="pedestrian" speed="8.00" length="10.13" shape="150.96,246.80 149.40,249.40 146.65,251.05 142.80,251.60"/>
    </edge>
    <edge id=":B2_9" function="internal">
        <lane id=":B2_9_0" index="0" disallow="pedestrian" speed="6.51" length="9.03" shape="142.80,248.40 145.25,248.05 147.00,247.00 148.05,245.25 148.40,242.80"/>
    </edge>
    <edge id=":B2_10" function="internal">
        <lane id=":B2_10_0" index="0" disallow="pedestrian" speed="13.89" length="14.40" shape="142.80,248.40 157.20,248.40"/>
    </edge>
    <edge id=":B2_11" function="internal">
        <lane id=":B2_11_0" index="0" disallow="pedestrian" speed="8.00" length="4.07" shape="142.80,248.40 146.65,248.95 146.80,249.04"/>
    </edge>
    <edge id=":B2_15" function="internal">
        <lane id=":B2_15_0" index="0" disallow="pedestrian" speed="8.00" length="10.13" shape="146.80,249.04 149.40,250.60 151.05,253.35 151.60,257.20"/>
    </edge>
    <edge id=":C0_0" function="internal">
        <lane id=":C0_0_0" index="0" disallow="pedestrian" speed="6.51" length="9.03" shape="248.40,57.20 248.05,54.75 247.00,53.00 245.25,51.95 242.80,51.60"/>
    </edge>
    <edge id=":C0_1" function="internal">
        <lane id=":C0_1_0" index="0" disallow="pedestrian" speed="13.89" length="14.40" shape="248.40,57.20 248.40,42.80"/>
    </edge>
    <edge id=":C0_2" function="internal">
        <lane id=":C0_2_0" index="0" disallow="pedestrian" speed="8.00" length="4.07" shape="248.40,57.20 248.95,53.35 249.04,53.20"/>
    </edge>
    <edge id=":C0_12" function="internal">
        <lane id=":C0_12_0" index="0" disallow="pedestrian" speed="8.00" length="10.13" shape="249.04,53.20 250.60,50.60 253.35,48.95 257.20,48.40"/>
    </edge>
    <edge id=":C0_3" function="internal">
        <lane id=":C0_3_0" index="0" disallow="pedestrian" speed="6.51" length="9.03" shape="257.20,51.60 254.75,51.95 253.00,53.00 251.95,54.75 251.60,57.20"/>
    </edge>
    <edge id=":C0_4" function="internal">
        <lane id=":C0_4_0" index="0" disallow="pedestrian" speed="13.89" length="14.40" shape="257.20,51.60 242.80,51.60"/>
    </edge>
    <edge id=":C0_5" function="internal">
        <lane id=":C0_5_0" index="0" disallow="pedestrian" speed="8.00" length="4.07" shape="257.20,51.60 253.35,51.05 253.20,50.96"/>
    </edge>
    <edge id=":C0_13" function="internal">
        <lane id=":C0_13_0" index="0" disallow="pedestrian" speed="8.00" length="10.13" shape="253.20,50.96 250.60,49.40 248.95,46.65 248.40,42.80"/>
    </edge>
    <edge id=":C0_6" function="internal">
        <lane id=":C0_6_0" index="0" disallow="pedestrian" speed="6.51" length="9.03" shape="251.60,42.80 251.95,45.25 253.00,47.00 254.75,48.05 257.20,48.40"/>
    </edge>
    <edge id=":C0_7" function="internal">
        <lane id=":C0_7_0" index="0" disallow="pedestrian" speed="13.89" length="14.40" shape="251.60,42.80 251.60,57.20"/>
    </edge>
    <edge id=":C0_8" function="internal">
        <lane id=":C0_8_0" index="0" disallow="pedestrian" speed="8.00" length="4.07" shape="251.60,42.80 251.05,46.65 250.96,46.80"/>
    </edge>
    <edge id=":C0_14" function="internal">
        <lane id=":C0_14_0" index="0" disallow="pedestrian" speed="8.00" length="10.13" shape="250.96,46.80 249.40,49.40 246.65,51.05 242.80,51.60"/>
    </edge>
    <edge id=":C0_9" function="internal">
        <lane id=":C0_9_0" index="0" disallow="pedestrian" speed="6.51" length="9.03" shape="242.80,48.40 245.25,48.05 247.00,47.00 248.05,45.25 248.40,42.80"/>
    </edge>
    <edge id=":C0_10" function="internal">
        <lane id=":C0_10_0" index="0" disallow="pedestrian" speed="13.89" length="14.40" shape="242.80,48.40 257.20,48.40"/>
    </edge>
    <edge id=":C0_11" function="internal">
        <lane id=":C0_11_0" index="0" disallow="pedestrian" speed="8.00" length="4.07" shape="242.80,48.40 246.65,48.95 246.80,49.04"/>
    </edge>
    <edge id=":C0_15" function="internal">
        <lane id=":C0_15_0" index="0" disallow="pedestrian" speed="8.00" length="10.13" shape="246.80,49.04 249.40,50.60 251.05,53.35 251.60,57.20"/>
    </edge>
    <edge id=":C1_0" function="internal">
        <lane id=":C1_0_0" index="0" disallow="pedestrian" speed="6.51" length="9.03" shape="248.40,157.20 248.05,154.75 247.00,153.00 245.25,151.95 242.80,151.60"/>
    </edge>
    <edge id=":C1_1" function="internal">
        <lane id=":C1_1_0" index="0" disallow="pedestrian" speed="13.89" length="14.40" shape="248.40,157.20 248.40,142.80"/>
    </edge>
    <edge id=":C1_2" function="internal">
        <lane id=":C1_2_0" index="0" disallow="pedestrian" speed="8.00" length="4.07" shape="248.40,157.20 248.95,153.35 249.04,153.20"/>
    </edge>
    <edge id=":C1_12" function="internal">
        <lane id=":C1_12_0" index="0" disallow="pedestrian" speed="8.00" length="10.13" shape="249.04,153.20 250.60,150.60 253.35,148.95 257.20,148.40"/>
    </edge>
    <edge id=":C1_3" function="internal">
        <lane id=":C1_3_0" index="0" disallow="pedestrian" speed="6.51" length="9.03" shape="257.20,151.60 254.75,151.95 253.00,153.00 251.95,154.75 251.60,157.20"/>
    </edge>
    <edge id=":C1_4" function="internal">
        <lane id=":C1_4_0" index="0" disallow="pedestrian" speed="13.89" length="14.40" shape="257.20,151.60 242.80,151.60"/>
    </edge>
    <edge id=":C1_5" function="internal">
        <lane id=":C1_5_0" index="0" disallow="pedestrian" speed="8.00" length="4.07" shape="257.20,151.60 253.35,151.05 253.20,150.96"/>
    </edge>
    <edge id=":C1_13" function="internal">
        <lane id=":C1_13_0" index="0" disallow="pedestrian" speed="8.00" length="10.13" shape="253.20,150.96 250.60,149.40 248.95,146.65 248.40,142.80"/>
    </edge>
    <edge id=":C1_6" function="internal">
        <lane id=":C1_6_0" index="0" disallow="pedestrian" speed="6.51" length="9.03" shape="251.60,142.80 251.95,145.25 253.00,147.00 254.75,148.05 257.20,148.40"/>
    </edge>
    <edge id=":C1_7" function="internal">
        <lane id=":C1_7_0" index="0" disallow="pedestrian" speed="13.89" length="14.40" shape="251.60,142.80 251.60,157.20"/>
    </edge>
    <edge id=":C1_8" function="internal">
        <lane id=":C1_8_0" index="0" disallow="pedestrian" speed="8.00" length="4.07" shape="251.60,142.80 251.05,146.65 250.96,146.80"/>
    </edge>
    <edge id=":C1_14" function="internal">
        <lane id=":C1_14_0" index="0" disallow="pedestrian" speed="8.00" length="10.13" shape="250.96,146.80 249.40,149.40 246.65,151.05 242.80,151.60"/>
    </edge>
    <edge id=":C1_9" function="internal">
        <lane id=":C1_9_0" index="0" disallow="pedestrian" speed="6.51" length="9.03" shape="242.80,148.40 245.25,148.05 247.00,147.00 248.05,145.25 248.40,142.80"/>
    </edge>
    <edge id=":C1_10" function="internal">
        <lane id=":C1_10_0" index="0" disallow="pedestrian" speed="13.89" length="14.40" shape="242.80,148.40 257.20,148.40"/>
    </edge>
    <edge id=":C1_11" function="internal">
        <lane id=":C1_11_0" index="0" disallow="pedestrian" speed="8.00" length="4.07" shape="242.80,148.40 246.65,148.95 246.80,149.04"/>
    </edge>
    <edge id=":C1_15" function="internal">
        <lane id=":C1_15_0" index="0" disallow="pedestrian" speed="8.00" length="10.13" shape="246.80,149.04 249.40,150.60 251.05,153.35 251.60,157.20"/>
    </edge>
    <edge id=":C2_0" function="internal">
        <lane id=":C2_0_0" index="0" disallow="pedestrian" speed="6.51" length="9.03" shape="248.40,257.20 248.05,254.75 247.00,253.00 245.25,251.95 242.80,251.60"/>
    </edge>
    <edge id=":C2_1" function="internal">
        <lane id=":C2_1_0" index="0" disallow="pedestrian" speed="13.89" length="14.40" shape="248.40,257.20 248.40,242.80"/>
    </edge>
    <edge id=":C2_2" function="internal">
        <lane id=":C2_2_0" index="0" disallow="pedestrian" speed="8.00" length="4.07" shape="248.40,257.20 248.95,253.35 249.04,253.20"/>
    </edge>
    <edge id=":C2_12" function="internal">
        <lane id=":C2_12_0" index="0" disallow="pedestrian" speed="8.00" length="10.13" shape="249.04,253.20 250.60,250.60 253.35,248.95 257.20,248.40"/>
    </edge>
    <edge id=":C2_3" function="internal">
        <lane id=":C2_3_0" index="0" disallow="pedestrian" speed="6.51" length="9.03" shape="257.20,251.60 254.75,251.95 253.00,253.00 251.95,254.75 251.60,257.20"/>
    </edge>
    <edge id=":C2_4" function="internal">
        <lane id=":C2_4_0" index="0" disallow="pedestrian" speed="13.89" length="14.40" shape="257.20,251.60 242.80,251.60"/>
    </edge>
    <edge id=":C2_5" function="internal">
        <lane id=":C2_5_0" index="0" disallow="pedestrian" speed="8.00" length="4.07" shape="257.20,251.60 253.35,251.05 253.20,250.96"/>
    </edge>
    <edge id=":C2_13" function="internal">
        <lane id=":C2_13_0" index="0" disallow="pedestrian" speed="8.00" length="10.13" shape="253.20,250.96 250.60,249.40 248.95,246.65 248.40,242.80"/>
    </edge>
    <edge id=":C2_6" function="internal">
        <lane id=":C2_6_0" index="0" disallow="pedestrian" speed="6.51" length="9.03" shape="251.60,242.80 251.95,245.25 253.00,247.00 254.75,248.05 257.20,248.40"/>
    </edge>
    <edge id=":C2_7" function="internal">
        <lane id=":C2_7_0" index="0" disallow="pedestrian" speed="13.89" length="14.40" shape="251.60,242.80 251.60,257.20"/>
    </edge>
    <edge id=":C2_8" function="internal">
        <lane id=":C2_8_0" index="0" disallow="pedestrian" speed="8.00" length="4.07" shape="251.60,242.80 251.05,246.65 250.96,246.80"/>
    </edge>
    <edge id=":C2_14" function="internal">
        <lane id=":C2_14_0" index="0" disallow="pedestrian" speed="8.00" length="10.13" shape="250.96,246.80 249.40,249.40 246.65,251.05 242.80,251.60"/>
    </edge>
    <edge id=":C2_9" function="internal">
        <lane id=":C2_9_0" index="0" disallow="pedestrian" speed="6.51" length="9.03" shape="242.80,248.40 245.25,248.05 247.00,247.00 248.05,245.25 248.40,242.80"/>
    </edge>
    <edge id=":C2_10" function="internal">
        <lane id=":C2_10_0" index="0" disallow="pedestrian" speed="13.89" length="14.40" shape="242.80,248.40 257.20,248.40"/>
    </edge>
    <edge id=":C2_11" function="internal">
        <lane id=":C2_11_0" index="0" disallow="pedestrian" speed="8.00" length="4.07" shape="242.80,248.40 246.65,248.95 246.80,249.04"/>
    </edge>
    <edge id=":C2_15" function="internal">
        <lane id=":C2_15_0" index="0" disallow="pedestrian" speed="8.00" length="10.13" shape="246.80,249.04 249.40,250.60 251.05,253.35 251.60,257.20"/>
    </edge>

    <edge id="A0A1" from="A0" to="A1" priority="-1">
        <lane id="A0A1_0" index="0" allow="pedestrian" speed="13.89" length="85.60" width="2.00" shape="54.20,57.20 54.20,142.80"/>
        <lane id="A0A1_1" index="1" disallow="pedestrian" speed="13.89" length="85.60" shape="51.60,57.20 51.60,142.80"/>