<?xml version="1.0" encoding="UTF-8"?>

<sumoConfiguration>
	<input>
		<net-file value="grid.net.xml"/>
		<route-files value="grid.rou.xml"/>
		<additional-files value="grid.bus_stops.add.xml"/>
	</input>
</sumoConfiguration>
