<?xml version="1.0" encoding="UTF-8"?>

<!-- generated on 2025-02-27 10:02:41 by Eclipse SUMO netgenerate Version 1.22.0
<netgenerateConfiguration xmlns:xsi="http://www.w3.org/2001/XMLSchema-instance" xsi:noNamespaceSchemaLocation="http://sumo.dlr.de/xsd/netgenerateConfiguration.xsd">

    <grid_network>
        <grid value="true"/>
        <grid.number value="5"/>
        <grid.length value="100"/>
        <grid.attach-length value="50"/>
    </grid_network>

    <output>
        <output-file value="grid.net.xml"/>
    </output>

    <building_defaults>
        <default-junction-type value="traffic_light"/>
    </building_defaults>

    <junctions>
        <no-turnarounds value="true"/>
    </junctions>

    <pedestrian>
        <sidewalks.guess value="true"/>
    </pedestrian>

</netgenerateConfiguration>
-->

<net version="1.20" junctionCornerDetail="5" limitTurnSpeed="5.50" xmlns:xsi="http://www.w3.org/2001/XMLSchema-instance" xsi:noNamespaceSchemaLocation="http://sumo.dlr.de/xsd/net_file.xsd">

    <location netOffset="0.00,0.00" convBoundary="0.00,0.00,500.00,500.00" origBoundary="0.00,0.00,500.00,500.00" projParameter="!"/>

    <edge id=":A0_0" function="internal">
        <lane id=":A0_0_0" index="0" disallow="pedestrian" speed="6.51" length="9.03" shape="48.40,57.20 48.05,54.75 47.00,53.00 45.25,51.95 42.80,51.60"/>
    </edge>
    <edge id=":A0_1" function="internal">
        <lane id=":A0_1_0" index="0" disallow="pedestrian" speed="13.89" length="14.40" shape="48.40,57.20 48.40,42.80"/>
    </edge>
    <edge id=":A0_2" function="internal">
        <lane id=":A0_2_0" index="0" disallow="pedestrian" speed="8.00" length="4.07" shape="48.40,57.20 48.95,53.35 49.04,53.20"/>
    </edge>
    <edge id=":A0_12" function="internal">
        <lane id=":A0_12_0" index="0" disallow="pedestrian" speed="8.00" length="10.13" shape="49.04,53.20 50.60,50.60 53.35,48.95 57.20,48.40"/>
    </edge>
    <edge id=":A0_3" function="internal">
        <lane id=":A0_3_0" index="0" disallow="pedestrian" speed="6.51" length="9.03" shape="57.20,51.60 54.75,51.95 53.00,53.00 51.95,54.75 51.60,57.20"/>
    </edge>
    <edge id=":A0_4" function="internal">
        <lane id=":A0_4_0" index="0" disallow="pedestrian" speed="13.89" length="14.40" shape="57.20,51.60 42.80,51.60"/>
    </edge>
    <edge id=":A0_5" function="internal">
        <lane id=":A0_5_0" index="0" disallow="pedestrian" speed="8.00" length="4.07" shape="57.20,51.60 53.35,51.05 53.20,50.96"/>
    </edge>
    <edge id=":A0_13" function="internal">
        <lane id=":A0_13_0" index="0" disallow="pedestrian" speed="8.00" length="10.13" shape="53.20,50.96 50.60,49.40 48.95,46.65 48.40,42.80"/>
    </edge>
    <edge id=":A0_6" function="internal">
        <lane id=":A0_6_0" index="0" disallow="pedestrian" speed="6.51" length="9.03" shape="51.60,42.80 51.95,45.25 53.00,47.00 54.75,48.05 57.20,48.40"/>
    </edge>
    <edge id=":A0_7" function="internal">
        <lane id=":A0_7_0" index="0" disallow="pedestrian" speed="13.89" length="14.40" shape="51.60,42.80 51.60,57.20"/>
    </edge>
    <edge id=":A0_8" function="internal">
        <lane id=":A0_8_0" index="0" disallow="pedestrian" speed="8.00" length="4.07" shape="51.60,42.80 51.05,46.65 50.96,46.80"/>
    </edge>
    <edge id=":A0_14" function="internal">
        <lane id=":A0_14_0" index="0" disallow="pedestrian" speed="8.00" length="10.13" shape="50.96,46.80 49.40,49.40 46.65,51.05 42.80,51.60"/>
    </edge>
    <edge id=":A0_9" function="internal">
        <lane id=":A0_9_0" index="0" disallow="pedestrian" speed="6.51" length="9.03" shape="42.80,48.40 45.25,48.05 47.00,47.00 48.05,45.25 48.40,42.80"/>
    </edge>
    <edge id=":A0_10" function="internal">
        <lane id=":A0_10_0" index="0" disallow="pedestrian" speed="13.89" length="14.40" shape="42.80,48.40 57.20,48.40"/>
    </edge>
    <edge id=":A0_11" function="internal">
        <lane id=":A0_11_0" index="0" disallow="pedestrian" speed="8.00" length="4.07" shape="42.80,48.40 46.65,48.95 46.80,49.04"/>
    </edge>
    <edge id=":A0_15" function="internal">
        <lane id=":A0_15_0" index="0" disallow="pedestrian" speed="8.00" length="10.13" shape="46.80,49.04 49.40,50.60 51.05,53.35 51.60,57.20"/>
    </edge>
    <edge id=":A1_0" function="internal">
        <lane id=":A1_0_0" index="0" disallow="pedestrian" speed="6.51" length="9.03" shape="48.40,157.20 48.05,154.75 47.00,153.00 45.25,151.95 42.80,151.60"/>
    </edge>
    <edge id=":A1_1" function="internal">
        <lane id=":A1_1_0" index="0" disallow="pedestrian" speed="13.89" length="14.40" shape="48.40,157.20 48.40,142.80"/>
    </edge>
    <edge id=":A1_2" function="internal">
        <lane id=":A1_2_0" index="0" disallow="pedestrian" speed="8.00" length="4.07" shape="48.40,157.20 48.95,153.35 49.04,153.20"/>
    </edge>
    <edge id=":A1_12" function="internal">
        <lane id=":A1_12_0" index="0" disallow="pedestrian" speed="8.00" length="10.13" shape="49.04,153.20 50.60,150.60 53.35,148.95 57.20,148.40"/>
    </edge>
    <edge id=":A1_3" function="internal">
        <lane id=":A1_3_0" index="0" disallow="pedestrian" speed="6.51" length="9.03" shape="57.20,151.60 54.75,151.95 53.00,153.00 51.95,154.75 51.60,157.20"/>
    </edge>
    <edge id=":A1_4" function="internal">
        <lane id=":A1_4_0" index="0" disallow="pedestrian" speed="13.89" length="14.40" shape="57.20,151.60 42.80,151.60"/>
    </edge>
    <edge id=":A1_5" function="internal">
        <lane id=":A1_5_0" index="0" disallow="pedestrian" speed="8.00" length="4.07" shape="57.20,151.60 53.35,151.05 53.20,150.96"/>
    </edge>
    <edge id=":A1_13" function="internal">
        <lane id=":A1_13_0" index="0" disallow="pedestrian" speed="8.00" length="10.13" shape="53.20,150.96 50.60,149.40 48.95,146.65 48.40,142.80"/>
    </edge>
    <edge id=":A1_6" function="internal">
        <lane id=":A1_6_0" index="0" disallow="pedestrian" speed="6.51" length="9.03" shape="51.60,142.80 51.95,145.25 53.00,147.00 54.75,148.05 57.20,148.40"/>
    </edge>
    <edge id=":A1_7" function="internal">
        <lane id=":A1_7_0" index="0" disallow="pedestrian" speed="13.89" length="14.40" shape="51.60,142.80 51.60,157.20"/>
    </edge>
    <edge id=":A1_8" function="internal">
        <lane id=":A1_8_0" index="0" disallow="pedestrian" speed="8.00" length="4.07" shape="51.60,142.80 51.05,146.65 50.96,146.80"/>
    </edge>
    <edge id=":A1_14" function="internal">
        <lane id=":A1_14_0" index="0" disallow="pedestrian" speed="8.00" length="10.13" shape="50.96,146.80 49.40,149.40 46.65,151.05 42.80,151.60"/>
    </edge>
    <edge id=":A1_9" function="internal">
        <lane id=":A1_9_0" index="0" disallow="pedestrian" speed="6.51" length="9.03" shape="42.80,148.40 45.25,148.05 47.00,147.00 48.05,145.25 48.40,142.80"/>
    </edge>
    <edge id=":A1_10" function="internal">
        <lane id=":A1_10_0" index="0" disallow="pedestrian" speed="13.89" length="14.40" shape="42.80,148.40 57.20,148.40"/>
    </edge>
    <edge id=":A1_11" function="internal">
        <lane id=":A1_11_0" index="0" disallow="pedestrian" speed="8.00" length="4.07" shape="42.80,148.40 46.65,148.95 46.80,149.04"/>
    </edge>
    <edge id=":A1_15" function="internal">
        <lane id=":A1_15_0" index="0" disallow="pedestrian" speed="8.00" length="10.13" shape="46.80,149.04 49.40,150.60 51.05,153.35 51.60,157.20"/>
    </edge>
    <edge id=":A2_0" function="internal">
        <lane id=":A2_0_0" index="0" disallow="pedestrian" speed="6.51" length="9.03" shape="48.40,257.20 48.05,254.75 47.00,253.00 45.25,251.95 42.80,251.60"/>
    </edge>
    <edge id=":A2_1" function="internal">
        <lane id=":A2_1_0" index="0" disallow="pedestrian" speed="13.89" length="14.40" shape="48.40,257.20 48.40,242.80"/>
    </edge>
    <edge id=":A2_2" function="internal">
        <lane id=":A2_2_0" index="0" disallow="pedestrian" speed="8.00" length="4.07" shape="48.40,257.20 48.95,253.35 49.04,253.20"/>
    </edge>
    <edge id=":A2_12" function="internal">
        <lane id=":A2_12_0" index="0" disallow="pedestrian" speed="8.00" length="10.13" shape="49.04,253.20 50.60,250.60 53.35,248.95 57.20,248.40"/>
    </edge>
    <edge id=":A2_3" function="internal">
        <lane id=":A2_3_0" index="0" disallow="pedestrian" speed="6.51" length="9.03" shape="57.20,251.60 54.75,251.95 53.00,253.00 51.95,254.75 51.60,257.20"/>
    </edge>
    <edge id=":A2_4" function="internal">
        <lane id=":A2_4_0" index="0" disallow="pedestrian" speed="13.89" length="14.40" shape="57.20,251.60 42.80,251.60"/>
    </edge>
    <edge id=":A2_5" function="internal">
        <lane id=":A2_5_0" index="0" disallow="pedestrian" speed="8.00" length="4.07" shape="57.20,251.60 53.35,251.05 53.20,250.96"/>
    </edge>
    <edge id=":A2_13" function="internal">
        <lane id=":A2_13_0" index="0" disallow="pedestrian" speed="8.00" length="10.13" shape="53.20,250.96 50.60,249.40 48.95,246.65 48.40,242.80"/>
    </edge>
    <edge id=":A2_6" function="internal">
        <lane id=":A2_6_0" index="0" disallow="pedestrian" speed="6.51" length="9.03" shape="51.60,242.80 51.95,245.25 53.00,247.00 54.75,248.05 57.20,248.40"/>
    </edge>
    <edge id=":A2_7" function="internal">
        <lane id=":A2_7_0" index="0" disallow="pedestrian" speed="13.89" length="14.40" shape="51.60,242.80 51.60,257.20"/>
    </edge>
    <edge id=":A2_8" function="internal">
        <lane id=":A2_8_0" index="0" disallow="pedestrian" speed="8.00" length="4.07" shape="51.60,242.80 51.05,246.65 50.96,246.80"/>
    </edge>
    <edge id=":A2_14" function="internal">
        <lane id=":A2_14_0" index="0" disallow="pedestrian" speed="8.00" length="10.13" shape="50.96,246.80 49.40,249.40 46.65,251.05 42.80,251.60"/>
    </edge>
    <edge id=":A2_9" function="internal">
        <lane id=":A2_9_0" index="0" disallow="pedestrian" speed="6.51" length="9.03" shape="42.80,248.40 45.25,248.05 47.00,247.00 48.05,245.25 48.40,242.80"/>
    </edge>
    <edge id=":A2_10" function="internal">
        <lane id=":A2_10_0" index="0" disallow="pedestrian" speed="13.89" length="14.40" shape="42.80,248.40 57.20,248.40"/>
    </edge>
    <edge id=":A2_11" function="internal">
        <lane id=":A2_11_0" index="0" disallow="pedestrian" speed="8.00" length="4.07" shape="42.80,248.40 46.65,248.95 46.80,249.04"/>
    </edge>
    <edge id=":A2_15" function="internal">
        <lane id=":A2_15_0" index="0" disallow="pedestrian" speed="8.00" length="10.13" shape="46.80,249.04 49.40,250.60 51.05,253.35 51.60,257.20"/>
    </edge>
    <edge id=":A3_0" function="internal">
        <lane id=":A3_0_0" index="0" disallow="pedestrian" speed="6.51" length="9.03" shape="48.40,357.20 48.05,354.75 47.00,353.00 45.25,351.95 42.80,351.60"/>
    </edge>
    <edge id=":A3_1" function="internal">
        <lane id=":A3_1_0" index="0" disallow="pedestrian" speed="13.89" length="14.40" shape="48.40,357.20 48.40,342.80"/>
    </edge>
    <edge id=":A3_2" function="internal">
        <lane id=":A3_2_0" index="0" disallow="pedestrian" speed="8.00" length="4.07" shape="48.40,357.20 48.95,353.35 49.04,353.20"/>
    </edge>
    <edge id=":A3_12" function="internal">
        <lane id=":A3_12_0" index="0" disallow="pedestrian" speed="8.00" length="10.13" shape="49.04,353.20 50.60,350.60 53.35,348.95 57.20,348.40"/>
    </edge>
    <edge id=":A3_3" function="internal">
        <lane id=":A3_3_0" index="0" disallow="pedestrian" speed="6.51" length="9.03" shape="57.20,351.60 54.75,351.95 53.00,353.00 51.95,354.75 51.60,357.20"/>
    </edge>
    <edge id=":A3_4" function="internal">
        <lane id=":A3_4_0" index="0" disallow="pedestrian" speed="13.89" length="14.40" shape="57.20,351.60 42.80,351.60"/>
    </edge>
    <edge id=":A3_5" function="internal">
        <lane id=":A3_5_0" index="0" disallow="pedestrian" speed="8.00" length="4.07" shape="57.20,351.60 53.35,351.05 53.20,350.96"/>
    </edge>
    <edge id=":A3_13" function="internal">
        <lane id=":A3_13_0" index="0" disallow="pedestrian" speed="8.00" length="10.13" shape="53.20,350.96 50.60,349.40 48.95,346.65 48.40,342.80"/>
    </edge>
    <edge id=":A3_6" function="internal">
        <lane id=":A3_6_0" index="0" disallow="pedestrian" speed="6.51" length="9.03" shape="51.60,342.80 51.95,345.25 53.00,347.00 54.75,348.05 57.20,348.40"/>
    </edge>
    <edge id=":A3_7" function="internal">
        <lane id=":A3_7_0" index="0" disallow="pedestrian" speed="13.89" length="14.40" shape="51.60,342.80 51.60,357.20"/>
    </edge>
    <edge id=":A3_8" function="internal">
        <lane id=":A3_8_0" index="0" disallow="pedestrian" speed="8.00" length="4.07" shape="51.60,342.80 51.05,346.65 50.96,346.80"/>
    </edge>
    <edge id=":A3_14" function="internal">
        <lane id=":A3_14_0" index="0" disallow="pedestrian" speed="8.00" length="10.13" shape="50.96,346.80 49.40,349.40 46.65,351.05 42.80,351.60"/>
    </edge>
    <edge id=":A3_9" function="internal">
        <lane id=":A3_9_0" index="0" disallow="pedestrian" speed="6.51" length="9.03" shape="42.80,348.40 45.25,348.05 47.00,347.00 48.05,345.25 48.40,342.80"/>
    </edge>
    <edge id=":A3_10" function="internal">
        <lane id=":A3_10_0" index="0" disallow="pedestrian" speed="13.89" length="14.40" shape="42.80,348.40 57.20,348.40"/>
    </edge>
    <edge id=":A3_11" function="internal">
        <lane id=":A3_11_0" index="0" disallow="pedestrian" speed="8.00" length="4.07" shape="42.80,348.40 46.65,348.95 46.80,349.04"/>
    </edge>
    <edge id=":A3_15" function="internal">
        <lane id=":A3_15_0" index="0" disallow="pedestrian" speed="8.00" length="10.13" shape="46.80,349.04 49.40,350.60 51.05,353.35 51.60,357.20"/>
    </edge>
    <edge id=":A4_0" function="internal">
        <lane id=":A4_0_0" index="0" disallow="pedestrian" speed="6.51" length="9.03" shape="48.40,457.20 48.05,454.75 47.00,453.00 45.25,451.95 42.80,451.60"/>
    </edge>
    <edge id=":A4_1" function="internal">
        <lane id=":A4_1_0" index="0" disallow="pedestrian" speed="13.89" length="14.40" shape="48.40,457.20 48.40,442.80"/>
    </edge>
    <edge id=":A4_2" function="internal">
        <lane id=":A4_2_0" index="0" disallow="pedestrian" speed="8.00" length="4.07" shape="48.40,457.20 48.95,453.35 49.04,453.20"/>
    </edge>
    <edge id=":A4_12" function="internal">
        <lane id=":A4_12_0" index="0" disallow="pedestrian" speed="8.00" length="10.13" shape="49.04,453.20 50.60,450.60 53.35,448.95 57.20,448.40"/>
    </edge>
    <edge id=":A4_3" function="internal">
        <lane id=":A4_3_0" index="0" disallow="pedestrian" speed="6.51" length="9.03" shape="57.20,451.60 54.75,451.95 53.00,453.00 51.95,454.75 51.60,457.20"/>
    </edge>
    <edge id=":A4_4" function="internal">
        <lane id=":A4_4_0" index="0" disallow="pedestrian" speed="13.89" length="14.40" shape="57.20,451.60 42.80,451.60"/>
    </edge>
    <edge id=":A4_5" function="internal">
        <lane id=":A4_5_0" index="0" disallow="pedestrian" speed="8.00" length="4.07" shape="57.20,451.60 53.35,451.05 53.20,450.96"/>
    </edge>
    <edge id=":A4_13" function="internal">
        <lane id=":A4_13_0" index="0" disallow="pedestrian" speed="8.00" length="10.13" shape="53.20,450.96 50.60,449.40 48.95,446.65 48.40,442.80"/>
    </edge>
    <edge id=":A4_6" function="internal">
        <lane id=":A4_6_0" index="0" disallow="pedestrian" speed="6.51" length="9.03" shape="51.60,442.80 51.95,445.25 53.00,447.00 54.75,448.05 57.20,448.40"/>
    </edge>
    <edge id=":A4_7" function="internal">
        <lane id=":A4_7_0" index="0" disallow="pedestrian" speed="13.89" length="14.40" shape="51.60,442.80 51.60,457.20"/>
    </edge>
    <edge id=":A4_8" function="internal">
        <lane id=":A4_8_0" index="0" disallow="pedestrian" speed="8.00" length="4.07" shape="51.60,442.80 51.05,446.65 50.96,446.80"/>
    </edge>
    <edge id=":A4_14" function="internal">
        <lane id=":A4_14_0" index="0" disallow="pedestrian" speed="8.00" length="10.13" shape="50.96,446.80 49.40,449.40 46.65,451.05 42.80,451.60"/>
    </edge>
    <edge id=":A4_9" function="internal">
        <lane id=":A4_9_0" index="0" disallow="pedestrian" speed="6.51" length="9.03" shape="42.80,448.40 45.25,448.05 47.00,447.00 48.05,445.25 48.40,442.80"/>
    </edge>
    <edge id=":A4_10" function="internal">
        <lane id=":A4_10_0" index="0" disallow="pedestrian" speed="13.89" length="14.40" shape="42.80,448.40 57.20,448.40"/>
    </edge>
    <edge id=":A4_11" function="internal">
        <lane id=":A4_11_0" index="0" disallow="pedestrian" speed="8.00" length="4.07" shape="42.80,448.40 46.65,448.95 46.80,449.04"/>
    </edge>
    <edge id=":A4_15" function="internal">
        <lane id=":A4_15_0" index="0" disallow="pedestrian" speed="8.00" length="10.13" shape="46.80,449.04 49.40,450.60 51.05,453.35 51.60,457.20"/>
    </edge>
    <edge id=":B0_0" function="internal">
        <lane id=":B0_0_0" index="0" disallow="pedestrian" speed="6.51" length="9.03" shape="148.40,57.20 148.05,54.75 147.00,53.00 145.25,51.95 142.80,51.60"/>
    </edge>
    <edge id=":B0_1" function="internal">
        <lane id=":B0_1_0" index="0" disallow="pedestrian" speed="13.89" length="14.40" shape="148.40,57.20 148.40,42.80"/>
    </edge>
    <edge id=":B0_2" function="internal">
        <lane id=":B0_2_0" index="0" disallow="pedestrian" speed="8.00" length="4.07" shape="148.40,57.20 148.95,53.35 149.04,53.20"/>
    </edge>
    <edge id=":B0_12" function="internal">
        <lane id=":B0_12_0" index="0" disallow="pedestrian" speed="8.00" length="10.13" shape="149.04,53.20 150.60,50.60 153.35,48.95 157.20,48.40"/>
    </edge>
    <edge id=":B0_3" function="internal">
        <lane id=":B0_3_0" index="0" disallow="pedestrian" speed="6.51" length="9.03" shape="157.20,51.60 154.75,51.95 153.00,53.00 151.95,54.75 151.60,57.20"/>
    </edge>
    <edge id=":B0_4" function="internal">
        <lane id=":B0_4_0" index="0" disallow="pedestrian" speed="13.89" length="14.40" shape="157.20,51.60 142.80,51.60"/>
    </edge>
    <edge id=":B0_5" function="internal">
        <lane id=":B0_5_0" index="0" disallow="pedestrian" speed="8.00" length="4.07" shape="157.20,51.60 153.35,51.05 153.20,50.96"/>
    </edge>
    <edge id=":B0_13" function="internal">
        <lane id=":B0_13_0" index="0" disallow="pedestrian" speed="8.00" length="10.13" shape="153.20,50.96 150.60,49.40 148.95,46.65 148.40,42.80"/>
    </edge>
    <edge id=":B0_6" function="internal">
        <lane id=":B0_6_0" index="0" disallow="pedestrian" speed="6.51" length="9.03" shape="151.60,42.80 151.95,45.25 153.00,47.00 154.75,48.05 157.20,48.40"/>
    </edge>
    <edge id=":B0_7" function="internal">
        <lane id=":B0_7_0" index="0" disallow="pedestrian" speed="13.89" length="14.40" shape="151.60,42.80 151.60,57.20"/>
    </edge>
    <edge id=":B0_8" function="internal">
        <lane id=":B0_8_0" index="0" disallow="pedestrian" speed="8.00" length="4.07" shape="151.60,42.80 151.05,46.65 150.96,46.80"/>
    </edge>
    <edge id=":B0_14" function="internal">
        <lane id=":B0_14_0" index="0" disallow="pedestrian" speed="8.00" length="10.13" shape="150.96,46.80 149.40,49.40 146.65,51.05 142.80,51.60"/>
    </edge>
    <edge id=":B0_9" function="internal">
        <lane id=":B0_9_0" index="0" disallow="pedestrian" speed="6.51" length="9.03" shape="142.80,48.40 145.25,48.05 147.00,47.00 148.05,45.25 148.40,42.80"/>
    </edge>
    <edge id=":B0_10" function="internal">
        <lane id=":B0_10_0" index="0" disallow="pedestrian" speed="13.89" length="14.40" shape="142.80,48.40 157.20,48.40"/>
    </edge>
    <edge id=":B0_11" function="internal">
        <lane id=":B0_11_0" index="0" disallow="pedestrian" speed="8.00" length="4.07" shape="142.80,48.40 146.65,48.95 146.80,49.04"/>
    </edge>
    <edge id=":B0_15" function="internal">
        <lane id=":B0_15_0" index="0" disallow="pedestrian" speed="8.00" length="10.13" shape="146.80,49.04 149.40,50.60 151.05,53.35 151.60,57.20"/>
    </edge>
    <edge id=":B1_0" function="internal">
        <lane id=":B1_0_0" index="0" disallow="pedestrian" speed="6.51" length="9.03" shape="148.40,157.20 148.05,154.75 147.00,153.00 145.25,151.95 142.80,151.60"/>
    </edge>
    <edge id=":B1_1" function="internal">
        <lane id=":B1_1_0" index="0" disallow="pedestrian" speed="13.89" length="14.40" shape="148.40,157.20 148.40,142.80"/>
    </edge>
    <edge id=":B1_2" function="internal">
        <lane id=":B1_2_0" index="0" disallow="pedestrian" speed="8.00" length="4.07" shape="148.40,157.20 148.95,153.35 149.04,153.20"/>
    </edge>
    <edge id=":B1_12" function="internal">
        <lane id=":B1_12_0" index="0" disallow="pedestrian" speed="8.00" length="10.13" shape="149.04,153.20 150.60,150.60 153.35,148.95 157.20,148.40"/>
    </edge>
    <edge id=":B1_3" function="internal">
        <lane id=":B1_3_0" index="0" disallow="pedestrian" speed="6.51" length="9.03" shape="157.20,151.60 154.75,151.95 153.00,153.00 151.95,154.75 151.60,157.20"/>
    </edge>
    <edge id=":B1_4" function="internal">
        <lane id=":B1_4_0" index="0" disallow="pedestrian" speed="13.89" length="14.40" shape="157.20,151.60 142.80,151.60"/>
    </edge>
    <edge id=":B1_5" function="internal">
        <lane id=":B1_5_0" index="0" disallow="pedestrian" speed="8.00" length="4.07" shape="157.20,151.60 153.35,151.05 153.20,150.96"/>
    </edge>
    <edge id=":B1_13" function="internal">
        <lane id=":B1_13_0" index="0" disallow="pedestrian" speed="8.00" length="10.13" shape="153.20,150.96 150.60,149.40 148.95,146.65 148.40,142.80"/>
    </edge>
    <edge id=":B1_6" function="internal">
        <lane id=":B1_6_0" index="0" disallow="pedestrian" speed="6.51" length="9.03" shape="151.60,142.80 151.95,145.25 153.00,147.00 154.75,148.05 157.20,148.40"/>
    </edge>
    <edge id=":B1_7" function="internal">
        <lane id=":B1_7_0" index="0" disallow="pedestrian" speed="13.89" length="14.40" shape="151.60,142.80 151.60,157.20"/>
    </edge>
    <edge id=":B1_8" function="internal">
        <lane id=":B1_8_0" index="0" disallow="pedestrian" speed="8.00" length="4.07" shape="151.60,142.80 151.05,146.65 150.96,146.80"/>
    </edge>
    <edge id=":B1_14" function="internal">
        <lane id=":B1_14_0" index="0" disallow="pedestrian" speed="8.00" length="10.13" shape="150.96,146.80 149.40,149.40 146.65,151.05 142.80,151.60"/>
    </edge>
    <edge id=":B1_9" function="internal">
        <lane id=":B1_9_0" index="0" disallow="pedestrian" speed="6.51" length="9.03" shape="142.80,148.40 145.25,148.05 147.00,147.00 148.05,145.25 148.40,142.80"/>
    </edge>
    <edge id=":B1_10" function="internal">
        <lane id=":B1_10_0" index="0" disallow="pedestrian" speed="13.89" length="14.40" shape="142.80,148.40 157.20,148.40"/>
    </edge>
    <edge id=":B1_11" function="internal">
        <lane id=":B1_11_0" index="0" disallow="pedestrian" speed="8.00" length="4.07" shape="142.80,148.40 146.65,148.95 146.80,149.04"/>
    </edge>
    <edge id=":B1_15" function="internal">
        <lane id=":B1_15_0" index="0" disallow="pedestrian" speed="8.00" length="10.13" shape="146.80,149.04 149.40,150.60 151.05,153.35 151.60,157.20"/>
    </edge>
    <edge id=":B2_0" function="internal">
        <lane id=":B2_0_0" index="0" disallow="pedestrian" speed="6.51" length="9.03" shape="148.40,257.20 148.05,254.75 147.00,253.00 145.25,251.95 142.80,251.60"/>
    </edge>
    <edge id=":B2_1" function="internal">
        <lane id=":B2_1_0" index="0" disallow="pedestrian" speed="13.89" length="14.40" shape="148.40,257.20 148.40,242.80"/>
    </edge>
    <edge id=":B2_2" function="internal">
        <lane id=":B2_2_0" index="0" disallow="pedestrian" speed="8.00" length="4.07" shape="148.40,257.20 148.95,253.35 149.04,253.20"/>
    </edge>
    <edge id=":B2_12" function="internal">
        <lane id=":B2_12_0" index="0" disallow="pedestrian" speed="8.00" length="10.13" shape="149.04,253.20 150.60,250.60 153.35,248.95 157.20,248.40"/>
    </edge>
    <edge id=":B2_3" function="internal">
        <lane id=":B2_3_0" index="0" disallow="pedestrian" speed="6.51" length="9.03" shape="157.20,251.60 154.75,251.95 153.00,253.00 151.95,254.75 151.60,257.20"/>
    </edge>
    <edge id=":B2_4" function="internal">
        <lane id=":B2_4_0" index="0" disallow="pedestrian" speed="13.89" length="14.40" shape="157.20,251.60 142.80,251.60"/>
    </edge>
    <edge id=":B2_5" function="internal">
        <lane id=":B2_5_0" index="0" disallow="pedestrian" speed="8.00" length="4.07" shape="157.20,251.60 153.35,251.05 153.20,250.96"/>
    </edge>
    <edge id=":B2_13" function="internal">
        <lane id=":B2_13_0" index="0" disallow="pedestrian" speed="8.00" length="10.13" shape="153.20,250.96 150.60,249.40 148.95,246.65 148.40,242.80"/>
    </edge>
    <edge id=":B2_6" function="internal">
        <lane id=":B2_6_0" index="0" disallow="pedestrian" speed="6.51" length="9.03" shape="151.60,242.80 151.95,245.25 153.00,247.00 154.75,248.05 157.20,248.40"/>
    </edge>
    <edge id=":B2_7" function="internal">
        <lane id=":B2_7_0" index="0" disallow="pedestrian" speed="13.89" length="14.40" shape="151.60,242.80 151.60,257.20"/>
    </edge>
    <edge id=":B2_8" function="internal">
        <lane id=":B2_8_0" index="0" disallow="pedestrian" speed="8.00" length="4.07" shape="151.60,242.80 151.05,246.65 150.96,246.80"/>
    </edge>
    <edge id=":B2_14" function="internal">
        <lane id=":B2_14_0" index="0" disallow="pedestrian" speed="8.00" length="10.13" shape="150.96,246.80 149.40,249.40 146.65,251.05 142.80,251.60"/>
    </edge>
    <edge id=":B2_9" function="internal">
        <lane id=":B2_9_0" index="0" disallow="pedestrian" speed="6.51" length="9.03" shape="142.80,248.40 145.25,248.05 147.00,247.00 148.05,245.25 148.40,242.80"/>
    </edge>
    <edge id=":B2_10" function="internal">
        <lane id=":B2_10_0" index="0" disallow="pedestrian" speed="13.89" length="14.40" shape="142.80,248.40 157.20,248.40"/>
    </edge>
    <edge id=":B2_11" function="internal">
        <lane id=":B2_11_0" index="0" disallow="pedestrian" speed="8.00" length="4.07" shape="142.80,248.40 146.65,248.95 146.80,249.04"/>
    </edge>
    <edge id=":B2_15" function="internal">
        <lane id=":B2_15_0" index="0" disallow="pedestrian" speed="8.00" length="10.13" shape="146.80,249.04 149.40,250.60 151.05,253.35 151.60,257.20"/>
    </edge>
    <edge id=":B3_0" function="internal">
        <lane id=":B3_0_0" index="0" disallow="pedestrian" speed="6.51" length="9.03" shape="148.40,357.20 148.05,354.75 147.00,353.00 145.25,351.95 142.80,351.60"/>
    </edge>
    <edge id=":B3_1" function="internal">
        <lane id=":B3_1_0" index="0" disallow="pedestrian" speed="13.89" length="14.40" shape="148.40,357.20 148.40,342.80"/>
    </edge>
    <edge id=":B3_2" function="internal">
        <lane id=":B3_2_0" index="0" disallow="pedestrian" speed="8.00" length="4.07" shape="148.40,357.20 148.95,353.35 149.04,353.20"/>
    </edge>
    <edge id=":B3_12" function="internal">
        <lane id=":B3_12_0" index="0" disallow="pedestrian" speed="8.00" length="10.13" shape="149.04,353.20 150.60,350.60 153.35,348.95 157.20,348.40"/>
    </edge>
    <edge id=":B3_3" function="internal">
        <lane id=":B3_3_0" index="0" disallow="pedestrian" speed="6.51" length="9.03" shape="157.20,351.60 154.75,351.95 153.00,353.00 151.95,354.75 151.60,357.20"/>
    </edge>
    <edge id=":B3_4" function="internal">
        <lane id=":B3_4_0" index="0" disallow="pedestrian" speed="13.89" length="14.40" shape="157.20,351.60 142.80,351.60"/>
    </edge>
    <edge id=":B3_5" function="internal">
        <lane id=":B3_5_0" index="0" disallow="pedestrian" speed="8.00" length="4.07" shape="157.20,351.60 153.35,351.05 153.20,350.96"/>
    </edge>
    <edge id=":B3_13" function="internal">
        <lane id=":B3_13_0" index="0" disallow="pedestrian" speed="8.00" length="10.13" shape="153.20,350.96 150.60,349.40 148.95,346.65 148.40,342.80"/>
    </edge>
    <edge id=":B3_6" function="internal">
        <lane id=":B3_6_0" index="0" disallow="pedestrian" speed="6.51" length="9.03" shape="151.60,342.80 151.95,345.25 153.00,347.00 154.75,348.05 157.20,348.40"/>
    </edge>
    <edge id=":B3_7" function="internal">
        <lane id=":B3_7_0" index="0" disallow="pedestrian" speed="13.89" length="14.40" shape="151.60,342.80 151.60,357.20"/>
    </edge>
    <edge id=":B3_8" function="internal">
        <lane id=":B3_8_0" index="0" disallow="pedestrian" speed="8.00" length="4.07" shape="151.60,342.80 151.05,346.65 150.96,346.80"/>
    </edge>
    <edge id=":B3_14" function="internal">
        <lane id=":B3_14_0" index="0" disallow="pedestrian" speed="8.00" length="10.13" shape="150.96,346.80 149.40,349.40 146.65,351.05 142.80,351.60"/>
    </edge>
    <edge id=":B3_9" function="internal">
        <lane id=":B3_9_0" index="0" disallow="pedestrian" speed="6.51" length="9.03" shape="142.80,348.40 145.25,348.05 147.00,347.00 148.05,345.25 148.40,342.80"/>
    </edge>
    <edge id=":B3_10" function="internal">
        <lane id=":B3_10_0" index="0" disallow="pedestrian" speed="13.89" length="14.40" shape="142.80,348.40 157.20,348.40"/>
    </edge>
    <edge id=":B3_11" function="internal">
        <lane id=":B3_11_0" index="0" disallow="pedestrian" speed="8.00" length="4.07" shape="142.80,348.40 146.65,348.95 146.80,349.04"/>
    </edge>
    <edge id=":B3_15" function="internal">
        <lane id=":B3_15_0" index="0" disallow="pedestrian" speed="8.00" length="10.13" shape="146.80,349.04 149.40,350.60 151.05,353.35 151.60,357.20"/>
    </edge>
    <edge id=":B4_0" function="internal">
        <lane id=":B4_0_0" index="0" disallow="pedestrian" speed="6.51" length="9.03" shape="148.40,457.20 148.05,454.75 147.00,453.00 145.25,451.95 142.80,451.60"/>
    </edge>
    <edge id=":B4_1" function="internal">