<?xml version="1.0" encoding="UTF-8"?>

<!-- generated on 2025-02-17 12:43:31 by Eclipse SUMO netedit Version 1.22.0
<neteditConfiguration xmlns:xsi="http://www.w3.org/2001/XMLSchema-instance" xsi:noNamespaceSchemaLocation="http://sumo.dlr.de/xsd/neteditConfiguration.xsd">

    <input>
        <sumocfg-file value="/home/vit/phd/intersections/sumolights/networks/circles.sumocfg"/>
        <route-files value="/home/vit/phd/intersections/sumolights/networks/circles.rou.xml"/>
        <sumo-net-file value="/home/vit/phd/intersections/sumolights/networks/circles.net.xml"/>
    </input>

    <output>
        <output-file value="/home/vit/phd/intersections/sumolights/networks/circles.net.xml"/>
    </output>

    <processing>
        <offset.disable-normalization value="true"/>
    </processing>

    <junctions>
        <no-turnarounds value="true"/>
    </junctions>

    <netedit>
        <new-network value="false"/>
    </netedit>

</neteditConfiguration>
-->

<net version="1.20" junctionCornerDetail="5" limitTurnSpeed="5.50" xmlns:xsi="http://www.w3.org/2001/XMLSchema-instance" xsi:noNamespaceSchemaLocation="http://sumo.dlr.de/xsd/net_file.xsd">

    <location netOffset="0.00,0.00" convBoundary="-55.19,-91.78,107.12,52.22" origBoundary="10000000000.00,10000000000.00,-10000000000.00,-10000000000.00" projParameter="!"/>

    <edge id=":J0_0" function="internal">
        <lane id=":J0_0_0" index="0" speed="4.31" length="1.15" shape="9.11,53.80 8.78,53.84 8.54,53.83 8.32,53.75 8.03,53.58"/>
    </edge>
    <edge id=":J1_0" function="internal">
        <lane id=":J1_0_0" index="0" speed="4.06" length="1.56" shape="-53.34,15.62 -53.66,15.38 -53.89,15.08 -54.03,14.73 -54.09,14.33"/>
    </edge>
    <edge id=":J2_0" function="internal">
        <lane id=":J2_0_0" index="0" speed="4.11" length="1.42" shape="-56.79,-48.65 -56.77,-49.01 -56.67,-49.35 -56.50,-49.65 -56.25,-49.91"/>
    </edge>
    <edge id=":J3_0" function="internal">
        <lane id=":J3_0_0" index="0" speed="4.37" length="1.08" shape="-12.11,-89.21 -11.87,-89.42 -11.68,-89.53 -11.46,-89.59 -11.14,-89.61"/>
    </edge>
    <edge id=":J4_0" function="internal">
        <lane id=":J4_0_0" index="0" speed="4.15" length="1.34" shape="50.22,-93.38 50.57,-93.37 50.89,-93.29 51.18,-93.14 51.44,-92.93"/>
    </edge>
    <edge id=":J6_0" function="internal">
        <lane id=":J6_0_0" index="0" speed="4.43" length="1.02" shape="98.82,-46.36 99.03,-46.15 99.15,-45.97 99.22,-45.78 99.27,-45.48"/>
    </edge>
    <edge id=":J7_0" function="internal">
        <lane id=":J7_0_0" index="0" speed="4.06" length="1.56" shape="108.69,11.58 108.72,11.98 108.64,12.35 108.48,12.69 108.22,13.00"/>
    </edge>
    <edge id=":J8_0" function="internal">
        <lane id=":J8_0_0" index="0" speed="13.89" length="0.99" shape="76.73,43.14 76.52,43.34 76.35,43.45 76.15,43.52 75.87,43.57"/>
    </edge>

    <edge id="E0" from="J0" to="J1" priority="-1">
        <lane id="E0_0" index="0" speed="13.89" length="72.16" shape="8.03,53.58 -53.34,15.62"/>
    </edge>
    <edge id="E1" from="J1" to="J2" priority="-1">
        <lane id="E1_0" index="0" speed="13.89" length="63.04" shape="-54.09,14.33 -56.79,-48.65"/>
    </edge>
    <edge id="E2" from="J2" to="J3" priority="-1">
        <lane id="E2_0" index="0" speed="13.89" length="59.10" shape="-56.25,-49.91 -12.11,-89.21"/>
    </edge>
    <edge id="E3" from="J3" to="J4" priority="-1">
        <lane id="E3_0" index="0" speed="13.89" length="61.48" shape="-11.14,-89.61 50.22,-93.38"/>
    </edge>
    <edge id="E4" from="J4" to="J6" priority="-1">
        <lane id="E4_0" index="0" speed="13.89" length="66.43" shape="51.44,-92.93 98.82,-46.36"/>
    </edge>
    <edge id="E5" from="J6" to="J7" priority="-1">
        <lane id="E5_0" index="0" speed="13.89" length="57.83" shape="99.27,-45.48 108.69,11.58"/>
    </edge>
    <edge id="E6" from="J7" to="J8" priority="-1">
        <lane id="E6_0" index="0" speed="13.89" length="43.59" shape="108.22,13.00 76.73,43.14"/>
    </edge>
    <edge id="E7" from="J8" to="J0" priority="-1">
        <lane id="E7_0" index="0" speed="13.89" length="67.53" shape="75.87,43.57 9.11,53.80"/>
    </edge>

    <junction id="J0" type="priority" x="8.87" y="52.22" incLanes="E7_0" intLanes=":J0_0_0" shape="9.36,55.38 8.87,52.22 7.19,54.94 7.93,55.35 8.22,55.44 8.52,55.47 8.88,55.44">
        <request index="0" response="0" foes="0" cont="0"/>
    </junction>
    <junction id="J1" type="priority" x="-52.50" y="14.26" incLanes="E0_0" intLanes=":J1_0_0" shape="-54.18,16.99 -52.50,14.26 -55.69,14.40 -55.49,15.44 -55.28,15.89 -54.99,16.30 -54.62,16.67">
        <request index="0" response="0" foes="0" cont="0"/>
    </junction>
    <junction id="J2" type="priority" x="-55.19" y="-48.72" incLanes="E1_0" intLanes=":J2_0_0" shape="-58.38,-48.58 -55.19,-48.72 -57.32,-51.11 -57.94,-50.38 -58.15,-49.97 -58.29,-49.54 -58.37,-49.07">
        <request index="0" response="0" foes="0" cont="0"/>
    </junction>
    <junction id="J3" type="priority" x="-11.05" y="-88.02" incLanes="E2_0" intLanes=":J3_0_0" shape="-11.05,-88.02 -11.24,-91.21 -12.03,-91.13 -12.31,-91.05 -12.56,-90.91 -12.83,-90.70 -13.17,-90.41">
        <request index="0" response="0" foes="0" cont="0"/>
    </junction>
    <junction id="J4" type="priority" x="50.32" y="-91.78" incLanes="E3_0" intLanes=":J4_0_0" shape="50.32,-91.78 52.57,-94.07 51.84,-94.61 51.45,-94.79 51.03,-94.92 50.59,-94.98 50.13,-94.98">
        <request index="0" response="0" foes="0" cont="0"/>
    </junction>
    <junction id="J6" type="priority" x="97.70" y="-45.22" incLanes="E4_0" intLanes=":J6_0_0" shape="97.70,-45.22 100.85,-45.74 100.70,-46.48 100.60,-46.73 100.45,-46.95 100.24,-47.20 99.94,-47.50">
        <request index="0" response="0" foes="0" cont="0"/>
    </junction>
    <junction id="J7" type="priority" x="107.12" y="11.84" incLanes="E5_0" intLanes=":J7_0_0" shape="110.27,11.32 107.12,11.84 109.33,14.15 109.98,13.32 110.17,12.86 110.29,12.38 110.32,11.86">
        <request index="0" response="0" foes="0" cont="0"/>
    </junction>
    <junction id="J8" type="priority" x="75.62" y="41.99" incLanes="E6_0" intLanes=":J8_0_0" shape="77.84,44.30 75.62,41.99 76.11,45.15 76.83,45.01 77.07,44.92 77.29,44.78 77.53,44.58">
        <request index="0" response="0" foes="0" cont="0"/>
    </junction>

    <connection from="E0" to="E1" fromLane="0" toLane="0" via=":J1_0_0" dir="l" state="M"/>
    <connection from="E1" to="E2" fromLane="0" toLane="0" via=":J2_0_0" dir="l" state="M"/>
    <connection from="E2" to="E3" fromLane="0" toLane="0" via=":J3_0_0" dir="s" state="M"/>
    <connection from="E3" to="E4" fromLane="0" toLane="0" via=":J4_0_0" dir="l" state="M"/>
    <connection from="E4" to="E5" fromLane="0" toLane="0" via=":J6_0_0" dir="s" state="M"/>
    <connection from="E5" to="E6" fromLane="0" toLane="0" via=":J7_0_0" dir="l" state="M"/>
    <connection from="E6" to="E7" fromLane="0" toLane="0" via=":J8_0_0" dir="s" state="M"/>
    <connection from="E7" to="E0" fromLane="0" toLane="0" via=":J0_0_0" dir="s" state="M"/>

    <connection from=":J0_0" to="E0" fromLane="0" toLane="0" dir="s" state="M"/>
    <connection from=":J1_0" to="E1" fromLane="0" toLane="0" dir="l" state="M"/>
    <connection from=":J2_0" to="E2" fromLane="0" toLane="0" dir="l" state="M"/>
    <connection from=":J3_0" to="E3" fromLane="0" toLane="0" dir="s" state="M"/>
    <connection from=":J4_0" to="E4" fromLane="0" toLane="0" dir="l" state="M"/>
    <connection from=":J6_0" to="E5" fromLane="0" toLane="0" dir="s" state="M"/>
    <connection from=":J7_0" to="E6" fromLane="0" toLane="0" dir="l" state="M"/>
    <connection from=":J8_0" to="E7" fromLane="0" toLane="0" dir="s" state="M"/>

</net>
