<?xml version="1.0" encoding="UTF-8"?>

<!-- generated on 2025-02-20 15:01:14 by Eclipse SUMO netedit Version 1.22.0
<neteditConfiguration xmlns:xsi="http://www.w3.org/2001/XMLSchema-instance" xsi:noNamespaceSchemaLocation="http://sumo.dlr.de/xsd/neteditConfiguration.xsd">

    <input>
        <additional-files value="/home/vit/phd/intersections/sumolights/networks/grid.add.xml"/>
        <route-files value="/home/vit/phd/intersections/sumolights/networks/grid.rou.xml"/>
        <sumo-net-file value="/home/vit/phd/intersections/sumolights/networks/grid.net.xml"/>
    </input>

    <output>
        <output-file value="/home/vit/phd/intersections/sumolights/networks/grid.net.xml"/>
    </output>

    <processing>
        <geometry.min-radius.fix.railways value="false"/>
        <geometry.max-grade.fix value="false"/>
        <offset.disable-normalization value="true"/>
        <lefthand value="0"/>
    </processing>

    <junctions>
        <no-turnarounds value="true"/>
        <junctions.corner-detail value="5"/>
        <junctions.limit-turn-speed value="5.50"/>
        <rectangular-lane-cut value="0"/>
    </junctions>

    <pedestrian>
        <walkingareas value="0"/>
    </pedestrian>

</neteditConfiguration>
-->

<net version="1.20" junctionCornerDetail="5" limitTurnSpeed="5.50" xmlns:xsi="http://www.w3.org/2001/XMLSchema-instance" xsi:noNamespaceSchemaLocation="http://sumo.dlr.de/xsd/net_file.xsd">

    <location netOffset="0.00,0.00" convBoundary="0.00,0.00,300.00,300.00" origBoundary="0.00,0.00,300.00,300.00" projParameter="!"/>

    <edge id=":A0_0" function="internal">
        <lane id=":A0_0_0" index="0" allow="private emergency authority vip passenger hov taxi bus coach delivery truck trailer motorcycle moped bicycle evehicle scooter" speed="6.05" length="8.06" width="2.00" shape="45.80,59.20 45.49,57.01 44.55,55.45 42.99,54.51 40.80,54.20"/>
    </edge>
    <edge id=":A0_1" function="internal">
        <lane id=":A0_1_0" index="0" allow="private emergency authority vip passenger hov taxi bus coach delivery truck trailer motorcycle moped bicycle evehicle scooter" speed="13.89" length="18.40" width="2.00" shape="45.80,59.20 45.80,40.80"/>
        <lane id=":A0_1_1" index="1" allow="private emergency authority vip passenger hov taxi bus coach delivery truck trailer motorcycle moped bicycle evehicle scooter" speed="13.89" length="18.40" shape="48.40,59.20 48.40,40.80"/>
    </edge>
    <edge id=":A0_3" function="internal">
        <lane id=":A0_3_0" index="0" allow="private emergency authority vip passenger hov taxi bus coach delivery truck trailer motorcycle moped bicycle evehicle scooter" speed="8.81" length="4.77" shape="48.40,59.20 49.08,54.48"/>
    </edge>
    <edge id=":A0_16" function="internal">
        <lane id=":A0_16_0" index="0" allow="private emergency authority vip passenger hov taxi bus coach delivery truck trailer motorcycle moped bicycle evehicle scooter" speed="8.81" length="12.64" shape="49.08,54.48 51.10,51.10 54.48,49.08 59.20,48.40"/>
    </edge>
    <edge id=":A0_4" function="internal">
        <lane id=":A0_4_0" index="0" allow="private emergency authority vip passenger hov taxi bus coach delivery truck trailer motorcycle moped bicycle evehicle scooter" speed="6.05" length="8.06" width="2.00" shape="59.20,54.20 57.01,54.51 55.45,55.45 54.51,57.01 54.20,59.20"/>
    </edge>
    <edge id=":A0_5" function="internal">
        <lane id=":A0_5_0" index="0" allow="private emergency authority vip passenger hov taxi bus coach delivery truck trailer motorcycle moped bicycle evehicle scooter" speed="13.89" length="18.40" width="2.00" shape="59.20,54.20 40.80,54.20"/>
        <lane id=":A0_5_1" index="1" allow="private emergency authority vip passenger hov taxi bus coach delivery truck trailer motorcycle moped bicycle evehicle scooter" speed="13.89" length="18.40" shape="59.20,51.60 40.80,51.60"/>
    </edge>
    <edge id=":A0_7" function="internal">
        <lane id=":A0_7_0" index="0" allow="private emergency authority vip passenger hov taxi bus coach delivery truck trailer motorcycle moped bicycle evehicle scooter" speed="8.81" length="4.77" shape="59.20,51.60 54.47,50.92"/>
    </edge>
    <edge id=":A0_17" function="internal">
        <lane id=":A0_17_0" index="0" allow="private emergency authority vip passenger hov taxi bus coach delivery truck trailer motorcycle moped bicycle evehicle scooter" speed="8.81" length="12.64" shape="54.47,50.92 51.10,48.90 49.07,45.53 48.40,40.80"/>
    </edge>
    <edge id=":A0_8" function="internal">
        <lane id=":A0_8_0" index="0" allow="private emergency authority vip passenger hov taxi bus coach delivery truck trailer motorcycle moped bicycle evehicle scooter" speed="6.05" length="8.06" width="2.00" shape="54.20,40.80 54.51,42.99 55.45,44.55 57.01,45.49 59.20,45.80"/>
    </edge>
    <edge id=":A0_9" function="internal">
        <lane id=":A0_9_0" index="0" allow="private emergency authority vip passenger hov taxi bus coach delivery truck trailer motorcycle moped bicycle evehicle scooter" speed="13.89" length="18.40" width="2.00" shape="54.20,40.80 54.20,59.20"/>
        <lane id=":A0_9_1" index="1" allow="private emergency authority vip passenger hov taxi bus coach delivery truck trailer motorcycle moped bicycle evehicle scooter" speed="13.89" length="18.40" shape="51.60,40.80 51.60,59.20"/>
    </edge>
    <edge id=":A0_11" function="internal">
        <lane id=":A0_11_0" index="0" allow="private emergency authority vip passenger hov taxi bus coach delivery truck trailer motorcycle moped bicycle evehicle scooter" speed="8.81" length="4.77" shape="51.60,40.80 50.92,45.52"/>
    </edge>
    <edge id=":A0_18" function="internal">
        <lane id=":A0_18_0" index="0" allow="private emergency authority vip passenger hov taxi bus coach delivery truck trailer motorcycle moped bicycle evehicle scooter" speed="8.81" length="12.64" shape="50.92,45.52 48.90,48.90 45.53,50.92 40.80,51.60"/>
    </edge>
    <edge id=":A0_12" function="internal">
        <lane id=":A0_12_0" index="0" allow="private emergency authority vip passenger hov taxi bus coach delivery truck trailer motorcycle moped bicycle evehicle scooter" speed="6.05" length="8.06" width="2.00" shape="40.80,45.80 42.99,45.49 44.55,44.55 45.49,42.99 45.80,40.80"/>
    </edge>
    <edge id=":A0_13" function="internal">
        <lane id=":A0_13_0" index="0" allow="private emergency authority vip passenger hov taxi bus coach delivery truck trailer motorcycle moped bicycle evehicle scooter" speed="13.89" length="18.40" width="2.00" shape="40.80,45.80 59.20,45.80"/>
        <lane id=":A0_13_1" index="1" allow="private emergency authority vip passenger hov taxi bus coach delivery truck trailer motorcycle moped bicycle evehicle scooter" speed="13.89" length="18.40" shape="40.80,48.40 59.20,48.40"/>
    </edge>
    <edge id=":A0_15" function="internal">
        <lane id=":A0_15_0" index="0" allow="private emergency authority vip passenger hov taxi bus coach delivery truck trailer motorcycle moped bicycle evehicle scooter" speed="8.81" length="4.77" shape="40.80,48.40 45.52,49.08"/>
    </edge>
    <edge id=":A0_19" function="internal">
        <lane id=":A0_19_0" index="0" allow="private emergency authority vip passenger hov taxi bus coach delivery truck trailer motorcycle moped bicycle evehicle scooter" speed="8.81" length="12.64" shape="45.52,49.08 48.90,51.10 50.92,54.48 51.60,59.20"/>
    </edge>
    <edge id=":A1_0" function="internal">
        <lane id=":A1_0_0" index="0" allow="private emergency authority vip passenger hov taxi bus coach delivery truck trailer motorcycle moped bicycle evehicle scooter" speed="6.05" length="8.06" width="2.00" shape="45.80,159.20 45.49,157.01 44.55,155.45 42.99,154.51 40.80,154.20"/>
    </edge>
    <edge id=":A1_1" function="internal">
        <lane id=":A1_1_0" index="0" allow="private emergency authority vip passenger hov taxi bus coach delivery truck trailer motorcycle moped bicycle evehicle scooter" speed="13.89" length="18.40" width="2.00" shape="45.80,159.20 45.80,140.80"/>
        <lane id=":A1_1_1" index="1" allow="private emergency authority vip passenger hov taxi bus coach delivery truck trailer motorcycle moped bicycle evehicle scooter" speed="13.89" length="18.40" shape="48.40,159.20 48.40,140.80"/>
    </edge>
    <edge id=":A1_3" function="internal">
        <lane id=":A1_3_0" index="0" allow="private emergency authority vip passenger hov taxi bus coach delivery truck trailer motorcycle moped bicycle evehicle scooter" speed="8.81" length="4.77" shape="48.40,159.20 49.08,154.48"/>
    </edge>
    <edge id=":A1_16" function="internal">
        <lane id=":A1_16_0" index="0" allow="private emergency authority vip passenger hov taxi bus coach delivery truck trailer motorcycle moped bicycle evehicle scooter" speed="8.81" length="12.64" shape="49.08,154.48 51.10,151.10 54.48,149.08 59.20,148.40"/>
    </edge>
    <edge id=":A1_4" function="internal">
        <lane id=":A1_4_0" index="0" allow="private emergency authority vip passenger hov taxi bus coach delivery truck trailer motorcycle moped bicycle evehicle scooter" speed="6.05" length="8.06" width="2.00" shape="59.20,154.20 57.01,154.51 55.45,155.45 54.51,157.01 54.20,159.20"/>
    </edge>
    <edge id=":A1_5" function="internal">
        <lane id=":A1_5_0" index="0" allow="private emergency authority vip passenger hov taxi bus coach delivery truck trailer motorcycle moped bicycle evehicle scooter" speed="13.89" length="18.40" width="2.00" shape="59.20,154.20 40.80,154.20"/>
        <lane id=":A1_5_1" index="1" allow="private emergency authority vip passenger hov taxi bus coach delivery truck trailer motorcycle moped bicycle evehicle scooter" speed="13.89" length="18.40" shape="59.20,151.60 40.80,151.60"/>
    </edge>
    <edge id=":A1_7" function="internal">
        <lane id=":A1_7_0" index="0" allow="private emergency authority vip passenger hov taxi bus coach delivery truck trailer motorcycle moped bicycle evehicle scooter" speed="8.81" length="4.77" shape="59.20,151.60 54.48,150.93"/>
    </edge>
    <edge id=":A1_17" function="internal">
        <lane id=":A1_17_0" index="0" allow="private emergency authority vip passenger hov taxi bus coach delivery truck trailer motorcycle moped bicycle evehicle scooter" speed="8.81" length="12.64" shape="54.48,150.93 51.10,148.90 49.08,145.52 48.40,140.80"/>
    </edge>
    <edge id=":A1_8" function="internal">
        <lane id=":A1_8_0" index="0" allow="private emergency authority vip passenger hov taxi bus coach delivery truck trailer motorcycle moped bicycle evehicle scooter" speed="6.05" length="8.06" width="2.00" shape="54.20,140.80 54.51,142.99 55.45,144.55 57.01,145.49 59.20,145.80"/>
    </edge>
    <edge id=":A1_9" function="internal">
        <lane id=":A1_9_0" index="0" allow="private emergency authority vip passenger hov taxi bus coach delivery truck trailer motorcycle moped bicycle evehicle scooter" speed="13.89" length="18.40" width="2.00" shape="54.20,140.80 54.20,159.20"/>
        <lane id=":A1_9_1" index="1" allow="private emergency authority vip passenger hov taxi bus coach delivery truck trailer motorcycle moped bicycle evehicle scooter" speed="13.89" length="18.40" shape="51.60,140.80 51.60,159.20"/>
    </edge>
    <edge id=":A1_11" function="internal">
        <lane id=":A1_11_0" index="0" allow="private emergency authority vip passenger hov taxi bus coach delivery truck trailer motorcycle moped bicycle evehicle scooter" speed="8.81" length="4.77" shape="51.60,140.80 50.92,145.53"/>
    </edge>
    <edge id=":A1_18" function="internal">
        <lane id=":A1_18_0" index="0" allow="private emergency authority vip passenger hov taxi bus coach delivery truck trailer motorcycle moped bicycle evehicle scooter" speed="8.81" length="12.64" shape="50.92,145.53 48.90,148.90 45.53,150.92 40.80,151.60"/>
    </edge>
    <edge id=":A1_12" function="internal">
        <lane id=":A1_12_0" index="0" allow="private emergency authority vip passenger hov taxi bus coach delivery truck trailer motorcycle moped bicycle evehicle scooter" speed="6.05" length="8.06" width="2.00" shape="40.80,145.80 42.99,145.49 44.55,144.55 45.49,142.99 45.80,140.80"/>
    </edge>
    <edge id=":A1_13" function="internal">
        <lane id=":A1_13_0" index="0" allow="private emergency authority vip passenger hov taxi bus coach delivery truck trailer motorcycle moped bicycle evehicle scooter" speed="13.89" length="18.40" width="2.00" shape="40.80,145.80 59.20,145.80"/>
        <lane id=":A1_13_1" index="1" allow="private emergency authority vip passenger hov taxi bus coach delivery truck trailer motorcycle moped bicycle evehicle scooter" speed="13.89" length="18.40" shape="40.80,148.40 59.20,148.40"/>
    </edge>
    <edge id=":A1_15" function="internal">
        <lane id=":A1_15_0" index="0" allow="private emergency authority vip passenger hov taxi bus coach delivery truck trailer motorcycle moped bicycle evehicle scooter" speed="8.81" length="4.77" shape="40.80,148.40 45.52,149.07"/>
    </edge>
    <edge id=":A1_19" function="internal">
        <lane id=":A1_19_0" index="0" allow="private emergency authority vip passenger hov taxi bus coach delivery truck trailer motorcycle moped bicycle evehicle scooter" speed="8.81" length="12.64" shape="45.52,149.07 48.90,151.10 50.92,154.48 51.60,159.20"/>
    </edge>
    <edge id=":A2_0" function="internal">
        <lane id=":A2_0_0" index="0" allow="private emergency authority vip passenger hov taxi bus coach delivery truck trailer motorcycle moped bicycle evehicle scooter" speed="6.05" length="8.06" width="2.00" shape="45.80,259.20 45.49,257.01 44.55,255.45 42.99,254.51 40.80,254.20"/>
    </edge>
    <edge id=":A2_1" function="internal">
        <lane id=":A2_1_0" index="0" allow="private emergency authority vip passenger hov taxi bus coach delivery truck trailer motorcycle moped bicycle evehicle scooter" speed="13.89" length="18.40" width="2.00" shape="45.80,259.20 45.80,240.80"/>
        <lane id=":A2_1_1" index="1" allow="private emergency authority vip passenger hov taxi bus coach delivery truck trailer motorcycle moped bicycle evehicle scooter" speed="13.89" length="18.40" shape="48.40,259.20 48.40,240.80"/>
    </edge>
    <edge id=":A2_3" function="internal">
        <lane id=":A2_3_0" index="0" allow="private emergency authority vip passenger hov taxi bus coach delivery truck trailer motorcycle moped bicycle evehicle scooter" speed="8.81" length="4.77" shape="48.40,259.20 49.08,254.47"/>
    </edge>
    <edge id=":A2_16" function="internal">
        <lane id=":A2_16_0" index="0" allow="private emergency authority vip passenger hov taxi bus coach delivery truck trailer motorcycle moped bicycle evehicle scooter" speed="8.81" length="12.64" shape="49.08,254.47 51.10,251.10 54.48,249.07 59.20,248.40"/>
    </edge>
    <edge id=":A2_4" function="internal">
        <lane id=":A2_4_0" index="0" allow="private emergency authority vip passenger hov taxi bus coach delivery truck trailer motorcycle moped bicycle evehicle scooter" speed="6.05" length="8.06" width="2.00" shape="59.20,254.20 57.01,254.51 55.45,255.45 54.51,257.01 54.20,259.20"/>
    </edge>
    <edge id=":A2_5" function="internal">
        <lane id=":A2_5_0" index="0" allow="private emergency authority vip passenger hov taxi bus coach delivery truck trailer motorcycle moped bicycle evehicle scooter" speed="13.89" length="18.40" width="2.00" shape="59.20,254.20 40.80,254.20"/>
        <lane id=":A2_5_1" index="1" allow="private emergency authority vip passenger hov taxi bus coach delivery truck trailer motorcycle moped bicycle evehicle scooter" speed="13.89" length="18.40" shape="59.20,251.60 40.80,251.60"/>
    </edge>
    <edge id=":A2_7" function="internal">
        <lane id=":A2_7_0" index="0" allow="private emergency authority vip passenger hov taxi bus coach delivery truck trailer motorcycle moped bicycle evehicle scooter" speed="8.81" length="4.77" shape="59.20,251.60 54.48,250.93"/>
    </edge>
    <edge id=":A2_17" function="internal">
        <lane id=":A2_17_0" index="0" allow="private emergency authority vip passenger hov taxi bus coach delivery truck trailer motorcycle moped bicycle evehicle scooter" speed="8.81" length="12.64" shape="54.48,250.93 51.10,248.90 49.08,245.53 48.40,240.80"/>
    </edge>
    <edge id=":A2_8" function="internal">
        <lane id=":A2_8_0" index="0" allow="private emergency authority vip passenger hov taxi bus coach delivery truck trailer motorcycle moped bicycle evehicle scooter" speed="6.05" length="8.06" width="2.00" shape="54.20,240.80 54.51,242.99 55.45,244.55 57.01,245.49 59.20,245.80"/>
    </edge>
    <edge id=":A2_9" function="internal">
        <lane id=":A2_9_0" index="0" allow="private emergency authority vip passenger hov taxi bus coach delivery truck trailer motorcycle moped bicycle evehicle scooter" speed="13.89" length="18.40" width="2.00" shape="54.20,240.80 54.20,259.20"/>
        <lane id=":A2_9_1" index="1" allow="private emergency authority vip passenger hov taxi bus coach delivery truck trailer motorcycle moped bicycle evehicle scooter" speed="13.89" length="18.40" shape="51.60,240.80 51.60,259.20"/>
    </edge>
    <edge id=":A2_11" function="internal">
        <lane id=":A2_11_0" index="0" allow="private emergency authority vip passenger hov taxi bus coach delivery truck trailer motorcycle moped bicycle evehicle scooter" speed="8.81" length="4.77" shape="51.60,240.80 50.92,245.53"/>
    </edge>
    <edge id=":A2_18" function="internal">
        <lane id=":A2_18_0" index="0" allow="private emergency authority vip passenger hov taxi bus coach delivery truck trailer motorcycle moped bicycle evehicle scooter" speed="8.81" length="12.64" shape="50.92,245.53 48.90,248.90 45.53,250.93 40.80,251.60"/>
    </edge>
    <edge id=":A2_12" function="internal">
        <lane id=":A2_12_0" index="0" allow="private emergency authority vip passenger hov taxi bus coach delivery truck trailer motorcycle moped bicycle evehicle scooter" speed="6.05" length="8.06" width="2.00" shape="40.80,245.80 42.99,245.49 44.55,244.55 45.49,242.99 45.80,240.80"/>
    </edge>
    <edge id=":A2_13" function="internal">
        <lane id=":A2_13_0" index="0" allow="private emergency authority vip passenger hov taxi bus coach delivery truck trailer motorcycle moped bicycle evehicle scooter" speed="13.89" length="18.40" width="2.00" shape="40.80,245.80 59.20,245.80"/>
        <lane id=":A2_13_1" index="1" allow="private emergency authority vip passenger hov taxi bus coach delivery truck trailer motorcycle moped bicycle evehicle scooter" speed="13.89" length="18.40" shape="40.80,248.40 59.20,248.40"/>
    </edge>
    <edge id=":A2_15" function="internal">
        <lane id=":A2_15_0" index="0" allow="private emergency authority vip passenger hov taxi bus coach delivery truck trailer motorcycle moped bicycle evehicle scooter" speed="8.81" length="4.77" shape="40.80,248.40 45.52,249.07"/>
    </edge>
    <edge id=":A2_19" function="internal">
        <lane id=":A2_19_0" index="0" allow="private emergency authority vip passenger hov taxi bus coach delivery truck trailer motorcycle moped bicycle evehicle scooter" speed="8.81" length="12.64" shape="45.52,249.07 48.90,251.10 50.92,254.47 51.60,259.20"/>
    </edge>
    <edge id=":B0_0" function="internal">
        <lane id=":B0_0_0" index="0" allow="private emergency authority vip passenger hov taxi bus coach delivery truck trailer motorcycle moped bicycle evehicle scooter" speed="6.05" length="8.06" width="2.00" shape="145.80,59.20 145.49,57.01 144.55,55.45 142.99,54.51 140.80,54.20"/>
    </edge>
    <edge id=":B0_1" function="internal">
        <lane id=":B0_1_0" index="0" allow="private emergency authority vip passenger hov taxi bus coach delivery truck trailer motorcycle moped bicycle evehicle scooter" speed="13.89" length="18.40" width="2.00" shape="145.80,59.20 145.80,40.80"/>
        <lane id=":B0_1_1" index="1" allow="private emergency authority vip passenger hov taxi bus coach delivery truck trailer motorcycle moped bicycle evehicle scooter" speed="13.89" length="18.40" shape="148.40,59.20 148.40,40.80"/>
    </edge>
    <edge id=":B0_3" function="internal">
        <lane id=":B0_3_0" index="0" allow="private emergency authority vip passenger hov taxi bus coach delivery truck trailer motorcycle moped bicycle evehicle scooter" speed="8.81" length="4.77" shape="148.40,59.20 149.07,54.48"/>
    </edge>
    <edge id=":B0_16" function="internal">
        <lane id=":B0_16_0" index="0" allow="private emergency authority vip passenger hov taxi bus coach delivery truck trailer motorcycle moped bicycle evehicle scooter" speed="8.81" length="12.64" shape="149.07,54.48 151.10,51.10 154.48,49.08 159.20,48.40"/>
    </edge>
    <edge id=":B0_4" function="internal">
        <lane id=":B0_4_0" index="0" allow="private emergency authority vip passenger hov taxi bus coach delivery truck trailer motorcycle moped bicycle evehicle scooter" speed="6.05" length="8.06" width="2.00" shape="159.20,54.20 157.01,54.51 155.45,55.45 154.51,57.01 154.20,59.20"/>
    </edge>
    <edge id=":B0_5" function="internal">
        <lane id=":B0_5_0" index="0" allow="private emergency authority vip passenger hov taxi bus coach delivery truck trailer motorcycle moped bicycle evehicle scooter" speed="13.89" length="18.40" width="2.00" shape="159.20,54.20 140.80,54.20"/>
        <lane id=":B0_5_1" index="1" allow="private emergency authority vip passenger hov taxi bus coach delivery truck trailer motorcycle moped bicycle evehicle scooter" speed="13.89" length="18.40" shape="159.20,51.60 140.80,51.60"/>
    </edge>
    <edge id=":B0_7" function="internal">
        <lane id=":B0_7_0" index="0" allow="private emergency authority vip passenger hov taxi bus coach delivery truck trailer motorcycle moped bicycle evehicle scooter" speed="8.81" length="4.77" shape="159.20,51.60 154.47,50.92"/>
    </edge>
    <edge id=":B0_17" function="internal">
        <lane id=":B0_17_0" index="0" allow="private emergency authority vip passenger hov taxi bus coach delivery truck trailer motorcycle moped bicycle evehicle scooter" speed="8.81" length="12.64" shape="154.47,50.92 151.10,48.90 149.08,45.53 148.40,40.80"/>
    </edge>
    <edge id=":B0_8" function="internal">
        <lane id=":B0_8_0" index="0" allow="private emergency authority vip passenger hov taxi bus coach delivery truck trailer motorcycle moped bicycle evehicle scooter" speed="6.05" length="8.06" width="2.00" shape="154.20,40.80 154.51,42.99 155.45,44.55 157.01,45.49 159.20,45.80"/>
    </edge>
    <edge id=":B0_9" function="internal">
        <lane id=":B0_9_0" index="0" allow="private emergency authority vip passenger hov taxi bus coach delivery truck trailer motorcycle moped bicycle evehicle scooter" speed="13.89" length="18.40" width="2.00" shape="154.20,40.80 154.20,59.20"/>
        <lane id=":B0_9_1" index="1" allow="private emergency authority vip passenger hov taxi bus coach delivery truck trailer motorcycle moped bicycle evehicle scooter" speed="13.89" length="18.40" shape="151.60,40.80 151.60,59.20"/>
    </edge>
    <edge id=":B0_11" function="internal">
        <lane id=":B0_11_0" index="0" allow="private emergency authority vip passenger hov taxi bus coach delivery truck trailer motorcycle moped bicycle evehicle scooter" speed="8.81" length="4.77" shape="151.60,40.80 150.93,45.52"/>
    </edge>
    <edge id=":B0_18" function="internal">
        <lane id=":B0_18_0" index="0" allow="private emergency authority vip passenger hov taxi bus coach delivery truck trailer motorcycle moped bicycle evehicle scooter" speed="8.81" length="12.64" shape="150.93,45.52 148.90,48.90 145.52,50.92 140.80,51.60"/>
    </edge>
    <edge id=":B0_12" function="internal">
        <lane id=":B0_12_0" index="0" allow="private emergency authority vip passenger hov taxi bus coach delivery truck trailer motorcycle moped bicycle evehicle scooter" speed="6.05" length="8.06" width="2.00" shape="140.80,45.80 142.99,45.49 144.55,44.55 145.49,42.99 145.80,40.80"/>
    </edge>
    <edge id=":B0_13" function="internal">
        <lane id=":B0_13_0" index="0" allow="private emergency authority vip passenger hov taxi bus coach delivery truck trailer motorcycle moped bicycle evehicle scooter" speed="13.89" length="18.40" width="2.00" shape="140.80,45.80 159.20,45.80"/>
        <lane id=":B0_13_1" index="1" allow="private emergency authority vip passenger hov taxi bus coach delivery truck trailer motorcycle moped bicycle evehicle scooter" speed="13.89" length="18.40" shape="140.80,48.40 159.20,48.40"/>
    </edge>
    <edge id=":B0_15" function="internal">
        <lane id=":B0_15_0" index="0" allow="private emergency authority vip passenger hov taxi bus coach delivery truck trailer motorcycle moped bicycle evehicle scooter" speed="8.81" length="4.77" shape="140.80,48.40 145.52,49.08"/>
    </edge>
    <edge id=":B0_19" function="internal">
        <lane id=":B0_19_0" index="0" allow="private emergency authority vip passenger hov taxi bus coach delivery truck trailer motorcycle moped bicycle evehicle scooter" speed="8.81" length="12.64" shape="145.52,49.08 148.90,51.10 150.92,54.48 151.60,59.20"/>
    </edge>
    <edge id=":B1_0" function="internal">
        <lane id=":B1_0_0" index="0" allow="private emergency authority vip passenger hov taxi bus coach delivery truck trailer motorcycle moped bicycle evehicle scooter" speed="6.05" length="8.06" width="2.00" shape="145.80,159.20 145.49,157.01 144.55,155.45 142.99,154.51 140.80,154.20"/>
    </edge>
    <edge id=":B1_1" function="internal">
        <lane id=":B1_1_0" index="0" allow="private emergency authority vip passenger hov taxi bus coach delivery truck trailer motorcycle moped bicycle evehicle scooter" speed="13.89" length="18.40" width="2.00" shape="145.80,159.20 145.80,140.80"/>
        <lane id=":B1_1_1" index="1" allow="private emergency authority vip passenger hov taxi bus coach delivery truck trailer motorcycle moped bicycle evehicle scooter" speed="13.89" length="18.40" shape="148.40,159.20 148.40,140.80"/>
    </edge>
    <edge id=":B1_3" function="internal">
        <lane id=":B1_3_0" index="0" allow="private emergency authority vip passenger hov taxi bus coach delivery truck trailer motorcycle moped bicycle evehicle scooter" speed="8.81" length="4.77" shape="148.40,159.20 149.07,154.48"/>
    </edge>
    <edge id=":B1_16" function="internal">
        <lane id=":B1_16_0" index="0" allow="private emergency authority vip passenger hov taxi bus coach delivery truck trailer motorcycle moped bicycle evehicle scooter" speed="8.81" length="12.64" shape="149.07,154.48 151.10,151.10 154.48,149.08 159.20,148.40"/>
    </edge>
    <edge id=":B1_4" function="internal">
        <lane id=":B1_4_0" index="0" allow="private emergency authority vip passenger hov taxi bus coach delivery truck trailer motorcycle moped bicycle evehicle scooter" speed="6.05" length="8.06" width="2.00" shape="159.20,154.20 157.01,154.51 155.45,155.45 154.51,157.01 154.20,159.20"/>
    </edge>
    <edge id=":B1_5" function="internal">
        <lane id=":B1_5_0" index="0" allow="private emergency authority vip passenger hov taxi bus coach delivery truck trailer motorcycle moped bicycle evehicle scooter" speed="13.89" length="18.40" width="2.00" shape="159.20,154.20 140.80,154.20"/>
        <lane id=":B1_5_1" index="1" allow="private emergency authority vip passenger hov taxi bus coach delivery truck trailer motorcycle moped bicycle evehicle scooter" speed="13.89" length="18.40" shape="159.20,151.60 140.80,151.60"/>
    </edge>
    <edge id=":B1_7" function="internal">
        <lane id=":B1_7_0" index="0" allow="private emergency authority vip passenger hov taxi bus coach delivery truck trailer motorcycle moped bicycle evehicle scooter" speed="8.81" length="4.77" shape="159.20,151.60 154.48,150.93"/>
    </edge>
    <edge id=":B1_17" function="internal">
        <lane id=":B1_17_0" index="0" allow="private emergency authority vip passenger hov taxi bus coach delivery truck trailer motorcycle moped bicycle evehicle scooter" speed="8.81" length="12.64" shape="154.48,150.93 151.10,148.90 149.08,145.52 148.40,140.80"/>
    </edge>
    <edge id=":B1_8" function="internal">
        <lane id=":B1_8_0" index="0" allow="private emergency authority vip passenger hov taxi bus coach delivery truck trailer motorcycle moped bicycle evehicle scooter" speed="6.05" length="8.06" width="2.00" shape="154.20,140.80 154.51,142.99 155.45,144.55 157.01,145.49 159.20,145.80"/>
    </edge>
    <edge id=":B1_9" function="internal">
        <lane id=":B1_9_0" index="0" allow="private emergency authority vip passenger hov taxi bus coach delivery truck trailer motorcycle moped bicycle evehicle scooter" speed="13.89" length="18.40" width="2.00" shape="154.20,140.80 154.20,159.20"/>
        <lane id=":B1_9_1" index="1" allow="private emergency authority vip passenger hov taxi bus coach delivery truck trailer motorcycle moped bicycle evehicle scooter" speed="13.89" length="18.40" shape="151.60,140.80 151.60,159.20"/>
    </edge>
    <edge id=":B1_11" function="internal">
        <lane id=":B1_11_0" index="0" allow="private emergency authority vip passenger hov taxi bus coach delivery truck trailer motorcycle moped bicycle evehicle scooter" speed="8.81" length="4.77" shape="151.60,140.80 150.93,145.52"/>
    </edge>
    <edge id=":B1_18" function="internal">
        <lane id=":B1_18_0" index="0" allow="private emergency authority vip passenger hov taxi bus coach delivery truck trailer motorcycle moped bicycle evehicle scooter" speed="8.81" length="12.64" shape="150.93,145.52 148.90,148.90 145.52,150.92 140.80,151.60"/>
    </edge>
    <edge id=":B1_12" function="internal">