<additional>
    <busStop id="busStop_0" lane="A0A1_1" startPos="50.0" endPos="57.0" friendlyPos="true"/>
    <busStop id="busStop_1" lane="A1A0_1" startPos="50.0" endPos="57.0" friendlyPos="true"/>
    <busStop id="busStop_2" lane="A1B1_1" startPos="50.0" endPos="57.0" friendlyPos="true"/>
    <busStop id="busStop_3" lane="B1A1_1" startPos="50.0" endPos="57.0" friendlyPos="true"/>
    <busStop id="busStop_4" lane="A2A3_1" startPos="50.0" endPos="57.0" friendlyPos="true"/>
    <busStop id="busStop_5" lane="A3A2_1" startPos="50.0" endPos="57.0" friendlyPos="true"/>
    <busStop id="busStop_6" lane="A3B3_1" startPos="50.0" endPos="57.0" friendlyPos="true"/>
    <busStop id="busStop_7" lane="B3A3_1" startPos="50.0" endPos="57.0" friendlyPos="true"/>
    <busStop id="busStop_8" lane="A4B4_1" startPos="50.0" endPos="57.0" friendlyPos="true"/>
    <busStop id="busStop_9" lane="B4A4_1" startPos="50.0" endPos="57.0" friendlyPos="true"/>
    <busStop id="busStop_10" lane="B0B1_1" startPos="50.0" endPos="57.0" friendlyPos="true"/>
    <busStop id="busStop_11" lane="B1B0_1" startPos="50.0" endPos="57.0" friendlyPos="true"/>
    <busStop id="busStop_12" lane="B1B2_1" startPos="50.0" endPos="57.0" friendlyPos="true"/>
    <busStop id="busStop_13" lane="B2B1_1" startPos="50.0" endPos="57.0" friendlyPos="true"/>
    <busStop id="busStop_14" lane="B2B3_1" startPos="50.0" endPos="57.0" friendlyPos="true"/>
    <busStop id="busStop_15" lane="B3B2_1" startPos="50.0" endPos="57.0" friendlyPos="true"/>
    <busStop id="busStop_16" lane="B3B4_1" startPos="50.0" endPos="57.0" friendlyPos="true"/>
    <busStop id="busStop_17" lane="B4B3_1" startPos="50.0" endPos="57.0" friendlyPos="true"/>
    <busStop id="busStop_18" lane="B4C4_1" startPos="50.0" endPos="57.0" friendlyPos="true"/>
    <busStop id="busStop_19" lane="C4B4_1" startPos="50.0" endPos="57.0" friendlyPos="true"/>
    <busStop id="busStop_20" lane="C0C1_1" startPos="50.0" endPos="57.0" friendlyPos="true"/>
    <busStop id="busStop_21" lane="C1C0_1" startPos="50.0" endPos="57.0" friendlyPos="true"/>
    <busStop id="busStop_22" lane="C1C2_1" startPos="50.0" endPos="57.0" friendlyPos="true"/>
    <busStop id="busStop_23" lane="C2C1_1" startPos="50.0" endPos="57.0" friendlyPos="true"/>
    <busStop id="busStop_24" lane="C2C3_1" startPos="50.0" endPos="57.0" friendlyPos="true"/>
    <busStop id="busStop_25" lane="C3C2_1" startPos="50.0" endPos="57.0" friendlyPos="true"/>
    <busStop id="busStop_26" lane="C3C4_1" startPos="50.0" endPos="57.0" friendlyPos="true"/>
    <busStop id="busStop_27" lane="C4C3_1" startPos="50.0" endPos="57.0" friendlyPos="true"/>
    <busStop id="busStop_28" lane="C4D4_1" startPos="50.0" endPos="57.0" friendlyPos="true"/>
    <busStop id="busStop_29" lane="D4C4_1" startPos="50.0" endPos="57.0" friendlyPos="true"/>
    <busStop id="busStop_30" lane="D0D1_1" startPos="50.0" endPos="57.0" friendlyPos="true"/>
    <busStop id="busStop_31" lane="D1D0_1" startPos="50.0" endPos="57.0" friendlyPos="true"/>
    <busStop id="busStop_32" lane="D1D2_1" startPos="50.0" endPos="57.0" friendlyPos="true"/>
    <busStop id="busStop_33" lane="D2D1_1" startPos="50.0" endPos="57.0" friendlyPos="true"/>
    <busStop id="busStop_34" lane="D2D3_1" startPos="50.0" endPos="57.0" friendlyPos="true"/>
    <busStop id="busStop_35" lane="D3D2_1" startPos="50.0" endPos="57.0" friendlyPos="true"/>
    <busStop id="busStop_36" lane="D3D4_1" startPos="50.0" endPos="57.0" friendlyPos="true"/>
    <busStop id="busStop_37" lane="D4D3_1" startPos="50.0" endPos="57.0" friendlyPos="true"/>
    <busStop id="busStop_38" lane="D4E4_1" startPos="50.0" endPos="57.0" friendlyPos="true"/>
    <busStop id="busStop_39" lane="E4D4_1" startPos="50.0" endPos="57.0" friendlyPos="true"/>
    <busStop id="busStop_40" lane="E0E1_1" startPos="50.0" endPos="57.0" friendlyPos="true"/>
    <busStop id="busStop_41" lane="E1E0_1" startPos="50.0" endPos="57.0" friendlyPos="true"/>
    <busStop id="busStop_42" lane="E2E3_1" startPos="50.0" endPos="57.0" friendlyPos="true"/>
    <busStop id="busStop_43" lane="E3E2_1" startPos="50.0" endPos="57.0" friendlyPos="true"/>
</additional>
