<?xml version="1.0" encoding="UTF-8"?>

<sumoConfiguration>
	<input>
		<net-file value="../networks/grid.net.xml"/>
		<route-files value="../networks/grid.rou.xml"/>
		<additional-files value="../networks/grid.bus_stops.add.xml"/>
	</input>
</sumoConfiguration>
