<?xml version="1.0" encoding="UTF-8"?>

<!-- generated on 2025-02-20 15:01:23 by Eclipse SUMO netedit Version 1.22.0
-->

<additional xmlns:xsi="http://www.w3.org/2001/XMLSchema-instance" xsi:noNamespaceSchemaLocation="http://sumo.dlr.de/xsd/additional_file.xsd">
    <!-- StoppingPlaces -->
    <busStop id="bs_0" lane="C1C2_1" startPos="69.23" endPos="79.23"/>
    <busStop id="bs_1" lane="B0C0_1" startPos="61.08" endPos="71.08"/>
    <busStop id="bs_2" lane="B2A2_1" startPos="49.92" endPos="59.92"/>
    <busStop id="bs_3" lane="A1A0_1" startPos="59.16" endPos="69.16"/>
    <busStop id="bs_4" lane="C0B0_1" startPos="58.78" endPos="68.78"/>
    <busStop id="bs_5" lane="A0A1_1" startPos="63.25" endPos="73.25"/>
    <busStop id="bs_6" lane="A2B2_1" startPos="48.54" endPos="58.54"/>
    <busStop id="bs_7" lane="C2C1_1" startPos="28.98" endPos="38.98"/>
    <!-- Types -->
    <vType id="bus" vClass="bus" guiShape="bus"/>
</additional>
