<?xml version="1.0" encoding="UTF-8"?>

<!-- generated on 2025-01-23 10:23:41 by Eclipse SUMO netedit Version 1.21.0
<neteditConfiguration xmlns:xsi="http://www.w3.org/2001/XMLSchema-instance" xsi:noNamespaceSchemaLocation="http://sumo.dlr.de/xsd/neteditConfiguration.xsd">

    <input>
        <sumocfg-file value="/home/vit/phd/intersections/sumolights/networks/one_lane.sumocfg"/>
        <additional-files value="/home/vit/phd/intersections/sumolights/networks/one_lane.add.xml"/>
        <route-files value="/home/vit/phd/intersections/sumolights/networks/one_lane.rou.xml"/>
        <sumo-net-file value="/home/vit/phd/intersections/sumolights/networks/one_lane.net.xml"/>
    </input>

    <output>
        <output-file value="/home/vit/phd/intersections/sumolights/networks/one_lane.net.xml"/>
    </output>

    <processing>
        <geometry.min-radius.fix.railways value="false"/>
        <geometry.max-grade.fix value="false"/>
        <offset.disable-normalization value="true"/>
        <lefthand value="0"/>
    </processing>

    <junctions>
        <no-turnarounds value="true"/>
        <junctions.corner-detail value="5"/>
        <junctions.limit-turn-speed value="5.50"/>
        <rectangular-lane-cut value="0"/>
    </junctions>

    <pedestrian>
        <walkingareas value="0"/>
    </pedestrian>

</neteditConfiguration>
-->

<net version="1.20" junctionCornerDetail="5" limitTurnSpeed="5.50" xmlns:xsi="http://www.w3.org/2001/XMLSchema-instance" xsi:noNamespaceSchemaLocation="http://sumo.dlr.de/xsd/net_file.xsd">

    <location netOffset="0.00,0.00" convBoundary="-63.74,-43.37,49.83,11.14" origBoundary="-10000000000.00,-10000000000.00,10000000000.00,10000000000.00" projParameter="!"/>

    <edge id=":clusterJ5_J6_J7_0" function="internal">
        <lane id=":clusterJ5_J6_J7_0_0" index="0" speed="13.89" length="14.40" shape="-3.34,12.53 -17.74,12.58"/>
    </edge>
    <edge id=":clusterJ5_J6_J7_1" function="internal">
        <lane id=":clusterJ5_J6_J7_1_0" index="0" speed="7.99" length="4.06" shape="-3.34,12.53 -7.21,12.00 -7.35,11.91"/>
    </edge>
    <edge id=":clusterJ5_J6_J7_6" function="internal">
        <lane id=":clusterJ5_J6_J7_6_0" index="0" speed="7.99" length="10.16" shape="-7.35,11.91 -9.96,10.35 -11.61,7.59 -12.14,3.73"/>
    </edge>
    <edge id=":clusterJ5_J6_J7_2" function="internal">
        <lane id=":clusterJ5_J6_J7_2_0" index="0" speed="6.49" length="9.03" shape="-8.94,3.74 -8.60,6.20 -7.56,7.95 -5.81,9.00 -3.36,9.34"/>
    </edge>
    <edge id=":clusterJ5_J6_J7_3" function="internal">
        <lane id=":clusterJ5_J6_J7_3_0" index="0" speed="8.03" length="14.20" shape="-8.94,3.74 -9.51,7.60 -11.16,10.36 -13.91,12.02 -17.74,12.58"/>
    </edge>
    <edge id=":clusterJ5_J6_J7_4" function="internal">
        <lane id=":clusterJ5_J6_J7_4_0" index="0" speed="6.54" length="9.08" shape="-17.76,9.39 -15.31,9.03 -13.56,7.96 -12.50,6.20 -12.14,3.73"/>
    </edge>
    <edge id=":clusterJ5_J6_J7_5" function="internal">
        <lane id=":clusterJ5_J6_J7_5_0" index="0" speed="13.89" length="14.40" shape="-17.76,9.39 -3.36,9.34"/>
    </edge>

    <edge id="-E0" from="J2" to="clusterJ5_J6_J7" priority="-1" shape="49.83,10.76 -11.08,10.96">
        <lane id="-E0_0" index="0" speed="13.89" length="53.18" shape="49.84,12.36 -3.34,12.53"/>
    </edge>
    <edge id="-E0.60" from="clusterJ5_J6_J7" to="J1" priority="-1" shape="-11.08,10.96 -63.74,11.14">
        <lane id="-E0.60_0" index="0" speed="13.89" length="45.99" shape="-17.74,12.58 -63.73,12.74"/>
    </edge>
    <edge id="-E1" from="clusterJ5_J6_J7" to="J4" priority="-1" shape="-10.55,5.77 -10.29,-43.37">
        <lane id="-E1_0" index="0" speed="13.89" length="47.11" shape="-12.14,3.73 -11.89,-43.38"/>
    </edge>
    <edge id="E0" from="J1" to="clusterJ5_J6_J7" priority="-1" shape="-63.74,11.14 -21.32,11.00">
        <lane id="E0_0" index="0" speed="13.89" length="45.99" shape="-63.75,9.54 -17.76,9.39"/>
    </edge>
    <edge id="E0.42" from="clusterJ5_J6_J7" to="J2" priority="-1" shape="-21.32,11.00 49.83,10.76">
        <lane id="E0.42_0" index="0" speed="13.89" length="53.18" shape="-3.36,9.34 49.82,9.16"/>
    </edge>
    <edge id="E1" from="J4" to="clusterJ5_J6_J7" priority="-1" shape="-10.29,-43.37 -10.55,5.77">
        <lane id="E1_0" index="0" speed="13.89" length="47.11" shape="-8.69,-43.36 -8.94,3.74"/>
    </edge>

    <tlLogic id="clusterJ5_J6_J7" type="static" programID="0" offset="0">
        <phase duration="42" state="GgrrGG"/>
        <phase duration="3"  state="yyrrGy"/>
        <phase duration="42" state="rrGGGr"/>
        <phase duration="3"  state="rryyGr"/>
    </tlLogic>

    <junction id="J1" type="dead_end" x="-63.74" y="11.14" incLanes="-E0.60_0" intLanes="" shape="-63.74,11.14 -63.73,14.34 -63.74,11.14"/>
    <junction id="J2" type="dead_end" x="49.83" y="10.76" incLanes="E0.42_0" intLanes="" shape="49.83,10.76 49.82,7.56 49.83,10.76"/>
    <junction id="J4" type="dead_end" x="-10.29" y="-43.37" incLanes="-E1_0" intLanes="" shape="-10.29,-43.37 -13.49,-43.39 -10.29,-43.37"/>
    <junction id="clusterJ5_J6_J7" type="traffic_light" x="-14.32" y="9.24" incLanes="-E0_0 E1_0 E0_0" intLanes=":clusterJ5_J6_J7_0_0 :clusterJ5_J6_J7_6_0 :clusterJ5_J6_J7_2_0 :clusterJ5_J6_J7_3_0 :clusterJ5_J6_J7_4_0 :clusterJ5_J6_J7_5_0" shape="-3.34,14.13 -3.36,7.74 -5.58,7.30 -6.36,6.75 -6.91,5.97 -7.23,4.97 -7.34,3.75 -13.74,3.72 -14.20,5.97 -14.76,6.76 -15.54,7.33 -16.54,7.67 -17.76,7.79 -17.74,14.18">
        <request index="0" response="000000" foes="001000" cont="0"/>
        <request index="1" response="110000" foes="111000" cont="1"/>
        <request index="2" response="100000" foes="100000" cont="0"/>
        <request index="3" response="100011" foes="100011" cont="0"/>
        <request index="4" response="000000" foes="000010" cont="0"/>
        <request index="5" response="000000" foes="001110" cont="0"/>
    </junction>

    <junction id=":clusterJ5_J6_J7_6_0" type="internal" x="-7.35" y="11.91" incLanes=":clusterJ5_J6_J7_1_0 E0_0" intLanes=":clusterJ5_J6_J7_3_0 :clusterJ5_J6_J7_4_0 :clusterJ5_J6_J7_5_0"/>

    <connection from="-E0" to="-E0.60" fromLane="0" toLane="0" via=":clusterJ5_J6_J7_0_0" tl="clusterJ5_J6_J7" linkIndex="0" dir="s" state="O"/>
    <connection from="-E0" to="-E1" fromLane="0" toLane="0" via=":clusterJ5_J6_J7_1_0" tl="clusterJ5_J6_J7" linkIndex="1" dir="l" state="o"/>
    <connection from="E0" to="-E1" fromLane="0" toLane="0" via=":clusterJ5_J6_J7_4_0" tl="clusterJ5_J6_J7" linkIndex="4" dir="r" state="O"/>
    <connection from="E0" to="E0.42" fromLane="0" toLane="0" via=":clusterJ5_J6_J7_5_0" tl="clusterJ5_J6_J7" linkIndex="5" dir="s" state="O"/>
    <connection from="E1" to="E0.42" fromLane="0" toLane="0" via=":clusterJ5_J6_J7_2_0" tl="clusterJ5_J6_J7" linkIndex="2" dir="r" state="o"/>
    <connection from="E1" to="-E0.60" fromLane="0" toLane="0" via=":clusterJ5_J6_J7_3_0" tl="clusterJ5_J6_J7" linkIndex="3" dir="l" state="o"/>

    <connection from=":clusterJ5_J6_J7_0" to="-E0.60" fromLane="0" toLane="0" dir="s" state="M"/>
    <connection from=":clusterJ5_J6_J7_1" to="-E1" fromLane="0" toLane="0" via=":clusterJ5_J6_J7_6_0" dir="l" state="m"/>
    <connection from=":clusterJ5_J6_J7_6" to="-E1" fromLane="0" toLane="0" dir="l" state="M"/>
    <connection from=":clusterJ5_J6_J7_2" to="E0.42" fromLane="0" toLane="0" dir="r" state="M"/>
    <connection from=":clusterJ5_J6_J7_3" to="-E0.60" fromLane="0" toLane="0" dir="l" state="M"/>
    <connection from=":clusterJ5_J6_J7_4" to="-E1" fromLane="0" toLane="0" dir="r" state="M"/>
    <connection from=":clusterJ5_J6_J7_5" to="E0.42" fromLane="0" toLane="0" dir="s" state="M"/>

</net>
