<?xml version="1.0" encoding="UTF-8"?>

<!-- generated on 2025-01-23 10:10:01 by Eclipse SUMO sumo Version 1.21.0
-->

<sumoConfiguration xmlns:xsi="http://www.w3.org/2001/XMLSchema-instance" xsi:noNamespaceSchemaLocation="http://sumo.dlr.de/xsd/sumoConfiguration.xsd">

    <input>
        <net-file value="my_test.net.xml"/>
        <route-files value="my_test.rou.xml"/>
        <additional-files value="my_test.add.xml"/>
    </input>

</sumoConfiguration>
