<?xml version="1.0" encoding="UTF-8"?>

<!-- generated on 2025-02-20 15:13:33 by Eclipse SUMO netedit Version 1.22.0
-->

<additional xmlns:xsi="http://www.w3.org/2001/XMLSchema-instance" xsi:noNamespaceSchemaLocation="http://sumo.dlr.de/xsd/additional_file.xsd">
    <!-- StoppingPlaces -->
    <busStop id="bs_0" lane="-E0_0" startPos="140.40" endPos="150.40"/>
    <busStop id="bs_1" lane="E2_0" startPos="152.23" endPos="162.23"/>
    <busStop id="bs_2" lane="E0_0" startPos="168.60" endPos="178.60"/>
    <busStop id="bs_3" lane="-E2_0" startPos="203.26" endPos="213.26"/>
</additional>
