<?xml version="1.0" encoding="UTF-8"?>

<!-- generated on 2025-02-20 16:55:07 by Eclipse SUMO sumo Version 1.22.0
-->

<sumoConfiguration xmlns:xsi="http://www.w3.org/2001/XMLSchema-instance" xsi:noNamespaceSchemaLocation="http://sumo.dlr.de/xsd/sumoConfiguration.xsd">

    <input>
        <net-file value="pub_test.net.xml"/>
        <route-files value="pub_test.rou.xml"/>
        <additional-files value="pub_test.add.xml"/>
    </input>

</sumoConfiguration>
