<?xml version="1.0" encoding="UTF-8"?>

<!-- generated on 2025-02-20 15:49:52 by Eclipse SUMO netedit Version 1.22.0
<neteditConfiguration xmlns:xsi="http://www.w3.org/2001/XMLSchema-instance" xsi:noNamespaceSchemaLocation="http://sumo.dlr.de/xsd/neteditConfiguration.xsd">

    <input>
        <sumocfg-file value="/home/vit/phd/intersections/sumolights/networks/pub_test.sumocfg"/>
        <additional-files value="/home/vit/phd/intersections/sumolights/networks/pub_test.add.xml"/>
        <route-files value="/home/vit/phd/intersections/sumolights/networks/pub_test.rou.xml"/>
        <sumo-net-file value="/home/vit/phd/intersections/sumolights/networks/pub_test.net.xml"/>
    </input>

    <output>
        <output-file value="/home/vit/phd/intersections/sumolights/networks/pub_test.net.xml"/>
    </output>

    <processing>
        <offset.disable-normalization value="true"/>
    </processing>

    <junctions>
        <no-turnarounds value="true"/>
    </junctions>

    <netedit>
        <new-network value="false"/>
    </netedit>

</neteditConfiguration>
-->

<net version="1.20" junctionCornerDetail="5" limitTurnSpeed="5.50" xmlns:xsi="http://www.w3.org/2001/XMLSchema-instance" xsi:noNamespaceSchemaLocation="http://sumo.dlr.de/xsd/net_file.xsd">

    <location netOffset="0.00,0.00" convBoundary="-131.75,-79.22,180.29,93.56" origBoundary="10000000000.00,10000000000.00,-10000000000.00,-10000000000.00" projParameter="!"/>

    <edge id=":J0_0" function="internal">
        <lane id=":J0_0_0" index="0" disallow="pedestrian tram rail_urban rail rail_electric rail_fast ship container cable_car subway aircraft drone" speed="8.17" length="14.26" width="2.00" shape="-80.61,70.48 -84.44,69.94 -87.28,68.32 -89.12,65.63 -89.98,61.86"/>
        <lane id=":J0_0_1" index="1" disallow="pedestrian tram rail_urban rail rail_electric rail_fast ship container cable_car subway aircraft drone" speed="7.12" length="10.31" shape="-80.61,67.88 -83.38,67.49 -85.43,66.32 -86.77,64.37 -87.39,61.65"/>
    </edge>
    <edge id=":J0_2" function="internal">
        <lane id=":J0_2_0" index="0" disallow="pedestrian tram rail_urban rail rail_electric rail_fast ship container cable_car subway aircraft drone" speed="3.09" length="1.52" width="2.00" shape="-81.61,61.16 -81.52,61.56 -81.32,61.85 -81.02,62.02 -80.61,62.08"/>
        <lane id=":J0_2_1" index="1" disallow="pedestrian tram rail_urban rail rail_electric rail_fast ship container cable_car subway aircraft drone" speed="5.38" length="5.46" shape="-84.20,61.38 -83.87,62.82 -83.17,63.85 -82.08,64.47 -80.61,64.68"/>
    </edge>
    <edge id=":J1_0" function="internal">
        <lane id=":J1_0_0" index="0" disallow="pedestrian tram rail_urban rail rail_electric rail_fast ship container cable_car subway aircraft drone" speed="10.04" length="9.92" width="2.00" shape="139.03,73.60 137.08,71.87 135.49,70.93 133.68,70.55 131.07,70.48"/>
        <lane id=":J1_0_1" index="1" disallow="pedestrian tram rail_urban rail rail_electric rail_fast ship container cable_car subway aircraft drone" speed="11.16" length="9.92" shape="140.82,71.72 138.44,69.59 136.49,68.44 134.27,67.97 131.07,67.88"/>
    </edge>
    <edge id=":J1_2" function="internal">
        <lane id=":J1_2_0" index="0" disallow="pedestrian tram rail_urban rail rail_electric rail_fast ship container cable_car subway aircraft drone" speed="9.14" length="3.68" shape="140.82,71.72 138.69,69.09 138.58,68.82"/>
    </edge>
    <edge id=":J1_9" function="internal">
        <lane id=":J1_9_0" index="0" disallow="pedestrian tram rail_urban rail rail_electric rail_fast ship container cable_car subway aircraft drone" speed="9.14" length="9.37" shape="138.58,68.82 137.53,66.22 137.37,63.11 138.18,59.75"/>
    </edge>
    <edge id=":J1_3" function="internal">
        <lane id=":J1_3_0" index="0" disallow="pedestrian tram rail_urban rail rail_electric rail_fast ship container cable_car subway aircraft drone" speed="6.37" length="6.24" width="2.00" shape="143.61,61.80 143.21,63.41 143.28,64.91 143.82,66.28 144.83,67.52"/>
        <lane id=":J1_3_1" index="1" disallow="pedestrian tram rail_urban rail rail_electric rail_fast ship container cable_car subway aircraft drone" speed="7.79" length="9.29" shape="141.18,60.88 140.59,63.28 140.70,65.50 141.52,67.54 143.03,69.40"/>
    </edge>
    <edge id=":J1_5" function="internal">
        <lane id=":J1_5_0" index="0" disallow="pedestrian tram rail_urban rail rail_electric rail_fast ship container cable_car subway aircraft drone" speed="8.98" length="13.16" shape="141.18,60.88 139.56,63.94 137.33,66.13 134.50,67.44 131.07,67.88"/>
    </edge>
    <edge id=":J1_6" function="internal">
        <lane id=":J1_6_0" index="0" disallow="pedestrian tram rail_urban rail rail_electric rail_fast ship container cable_car subway aircraft drone" speed="6.17" length="6.09" width="2.00" shape="131.07,62.08 132.66,61.87 133.97,61.27 135.00,60.25 135.75,58.84"/>
        <lane id=":J1_6_1" index="1" disallow="pedestrian tram rail_urban rail rail_electric rail_fast ship container cable_car subway aircraft drone" speed="7.62" length="9.26" shape="131.07,64.68 133.48,64.37 135.48,63.45 137.04,61.91 138.18,59.75"/>
    </edge>
    <edge id=":J1_8" function="internal">
        <lane id=":J1_8_0" index="0" disallow="pedestrian tram rail_urban rail rail_electric rail_fast ship container cable_car subway aircraft drone" speed="12.32" length="13.41" shape="131.07,64.68 135.00,64.79 137.72,65.38 140.10,66.79 143.03,69.40"/>
    </edge>
    <edge id=":J2_0" function="internal">
        <lane id=":J2_0_0" index="0" disallow="pedestrian tram rail_urban rail rail_electric rail_fast ship container cable_car subway aircraft drone" speed="11.14" length="11.73" width="2.00" shape="-98.44,-38.74 -98.95,-42.36 -99.79,-45.36 -100.98,-47.72 -102.51,-49.45"/>
        <lane id=":J2_0_1" index="1" disallow="pedestrian tram rail_urban rail rail_electric rail_fast ship container cable_car subway aircraft drone" speed="12.12" length="13.78" shape="-95.85,-38.95 -96.45,-43.10 -97.48,-46.57 -98.94,-49.35 -100.85,-51.45"/>
    </edge>
    <edge id=":J2_2" function="internal">
        <lane id=":J2_2_0" index="0" disallow="pedestrian tram rail_urban rail rail_electric rail_fast ship container cable_car subway aircraft drone" speed="8.67" length="17.97" shape="-95.85,-38.95 -95.56,-43.93 -93.72,-47.48 -90.32,-49.60 -85.39,-50.29"/>
    </edge>
    <edge id=":J2_3" function="internal">
        <lane id=":J2_3_0" index="0" disallow="pedestrian tram rail_urban rail rail_electric rail_fast ship container cable_car subway aircraft drone" speed="5.86" length="8.01" width="2.00" shape="-85.41,-44.49 -87.61,-44.19 -89.12,-43.24 -89.94,-41.66 -90.07,-39.44"/>
        <lane id=":J2_3_1" index="1" disallow="pedestrian tram rail_urban rail rail_electric rail_fast ship container cable_car subway aircraft drone" speed="7.32" length="12.48" shape="-85.40,-47.09 -88.83,-46.61 -91.18,-45.14 -92.46,-42.68 -92.67,-39.22"/>
    </edge>
    <edge id=":J2_5" function="internal">
        <lane id=":J2_5_0" index="0" disallow="pedestrian tram rail_urban rail rail_electric rail_fast ship container cable_car subway aircraft drone" speed="13.89" length="16.63" shape="-85.40,-47.09 -90.33,-47.07 -93.82,-47.36 -96.96,-48.61 -100.85,-51.45"/>
    </edge>
    <edge id=":J2_6" function="internal">
        <lane id=":J2_6_0" index="0" disallow="pedestrian tram rail_urban rail rail_electric rail_fast ship container cable_car subway aircraft drone" speed="12.83" length="13.49" width="2.00" shape="-97.14,-55.91 -94.18,-53.81 -91.78,-52.96 -89.12,-52.83 -85.38,-52.89"/>
        <lane id=":J2_6_1" index="1" disallow="pedestrian tram rail_urban rail rail_electric rail_fast ship container cable_car subway aircraft drone" speed="13.77" length="13.49" shape="-98.80,-53.91 -95.43,-51.48 -92.69,-50.45 -89.66,-50.25 -85.39,-50.29"/>
    </edge>
    <edge id=":J2_8" function="internal">
        <lane id=":J2_8_0" index="0" disallow="pedestrian tram rail_urban rail rail_electric rail_fast ship container cable_car subway aircraft drone" speed="13.16" length="3.48" shape="-98.80,-53.91 -96.44,-51.35"/>
    </edge>
    <edge id=":J2_9" function="internal">
        <lane id=":J2_9_0" index="0" disallow="pedestrian tram rail_urban rail rail_electric rail_fast ship container cable_car subway aircraft drone" speed="13.16" length="12.84" shape="-96.44,-51.35 -94.63,-48.05 -93.37,-44.01 -92.67,-39.22"/>
    </edge>
    <edge id=":J3_0" function="internal">
        <lane id=":J3_0_0" index="0" disallow="pedestrian tram rail_urban rail rail_electric rail_fast ship container cable_car subway aircraft drone" speed="8.21" length="19.56" width="2.00" shape="172.82,-51.86 178.44,-51.04 181.78,-48.65 182.82,-44.69 181.59,-39.15"/>
        <lane id=":J3_0_1" index="1" disallow="pedestrian tram rail_urban rail rail_electric rail_fast ship container cable_car subway aircraft drone" speed="7.15" length="14.15" shape="172.81,-49.26 176.88,-48.67 179.29,-46.94 180.05,-44.07 179.15,-40.06"/>
    </edge>
    <edge id=":J3_2" function="internal">
        <lane id=":J3_2_0" index="0" disallow="pedestrian tram rail_urban rail rail_electric rail_fast ship container cable_car subway aircraft drone" speed="3.10" length="2.08" width="2.00" shape="173.72,-42.10 173.85,-42.69 173.74,-43.12 173.39,-43.37 172.79,-43.46"/>
        <lane id=":J3_2_1" index="1" disallow="pedestrian tram rail_urban rail rail_electric rail_fast ship container cable_car subway aircraft drone" speed="5.40" length="7.49" shape="176.16,-41.19 176.63,-43.31 176.23,-44.83 174.95,-45.74 172.80,-46.06"/>
    </edge>

    <edge id="-E0" from="J1" to="J0" priority="-1">
        <lane id="-E0_0" index="0" disallow="pedestrian tram rail_urban rail rail_electric rail_fast ship container cable_car subway aircraft drone" speed="13.89" length="211.68" width="2.00" shape="131.07,70.48 -80.61,70.48"/>
        <lane id="-E0_1" index="1" disallow="pedestrian tram rail_urban rail rail_electric rail_fast ship container cable_car subway aircraft drone" speed="13.89" length="211.68" shape="131.07,67.88 -80.61,67.88"/>
    </edge>
    <edge id="-E1" from="J2" to="J0" priority="-1">
        <lane id="-E1_0" index="0" disallow="pedestrian tram rail_urban rail rail_electric rail_fast ship container cable_car subway aircraft drone" speed="13.89" length="100.96" width="2.00" shape="-90.07,-39.44 -81.61,61.16"/>
        <lane id="-E1_1" index="1" disallow="pedestrian tram rail_urban rail rail_electric rail_fast ship container cable_car subway aircraft drone" speed="13.89" length="100.96" shape="-92.67,-39.22 -84.20,61.38"/>
    </edge>
    <edge id="-E2" from="J3" to="J2" priority="-1">
        <lane id="-E2_0" index="0" disallow="pedestrian tram rail_urban rail rail_electric rail_fast ship container cable_car subway aircraft drone" speed="13.89" length="258.20" width="2.00" shape="172.79,-43.46 -85.41,-44.49"/>
        <lane id="-E2_1" index="1" disallow="pedestrian tram rail_urban rail rail_electric rail_fast ship container cable_car subway aircraft drone" speed="13.89" length="258.20" shape="172.80,-46.06 -85.40,-47.09"/>
    </edge>
    <edge id="-E3" from="J1" to="J3" priority="-1">
        <lane id="-E3_0" index="0" disallow="pedestrian tram rail_urban rail rail_electric rail_fast ship container cable_car subway aircraft drone" speed="13.89" length="107.85" width="2.00" shape="135.75,58.84 173.72,-42.10"/>
        <lane id="-E3_1" index="1" disallow="pedestrian tram rail_urban rail rail_electric rail_fast ship container cable_car subway aircraft drone" speed="13.89" length="107.85" shape="138.18,59.75 176.16,-41.19"/>
    </edge>
    <edge id="-E4" from="J4" to="J2" priority="-1">
        <lane id="-E4_0" index="0" disallow="pedestrian tram rail_urban rail rail_electric rail_fast ship container cable_car subway aircraft drone" speed="13.89" length="41.51" width="2.00" shape="-129.07,-82.45 -97.14,-55.91"/>
        <lane id="-E4_1" index="1" disallow="pedestrian tram rail_urban rail rail_electric rail_fast ship container cable_car subway aircraft drone" speed="13.89" length="41.51" shape="-130.73,-80.45 -98.80,-53.91"/>
    </edge>
    <edge id="-E5" from="J5" to="J1" priority="-1">
        <lane id="-E5_0" index="0" disallow="pedestrian tram rail_urban rail rail_electric rail_fast ship container cable_car subway aircraft drone" speed="13.89" length="33.32" width="2.00" shape="163.13,96.60 139.03,73.60"/>
        <lane id="-E5_1" index="1" disallow="pedestrian tram rail_urban rail rail_electric rail_fast ship container cable_car subway aircraft drone" speed="13.89" length="33.32" shape="164.93,94.72 140.82,71.72"/>
    </edge>
    <edge id="E0" from="J0" to="J1" priority="-1">
        <lane id="E0_0" index="0" disallow="pedestrian tram rail_urban rail rail_electric rail_fast ship container cable_car subway aircraft drone" speed="13.89" length="211.68" width="2.00" shape="-80.61,62.08 131.07,62.08"/>
        <lane id="E0_1" index="1" disallow="pedestrian tram rail_urban rail rail_electric rail_fast ship container cable_car subway aircraft drone" speed="13.89" length="211.68" shape="-80.61,64.68 131.07,64.68"/>
    </edge>
    <edge id="E1" from="J0" to="J2" priority="-1">
        <lane id="E1_0" index="0" disallow="pedestrian tram rail_urban rail rail_electric rail_fast ship container cable_car subway aircraft drone" speed="13.89" length="100.96" width="2.00" shape="-89.98,61.86 -98.44,-38.74"/>
        <lane id="E1_1" index="1" disallow="pedestrian tram rail_urban rail rail_electric rail_fast ship container cable_car subway aircraft drone" speed="13.89" length="100.96" shape="-87.39,61.65 -95.85,-38.95"/>
    </edge>
    <edge id="E2" from="J2" to="J3" priority="-1">
        <lane id="E2_0" index="0" disallow="pedestrian tram rail_urban rail rail_electric rail_fast ship container cable_car subway aircraft drone" speed="13.89" length="258.20" width="2.00" shape="-85.38,-52.89 172.82,-51.86"/>
        <lane id="E2_1" index="1" disallow="pedestrian tram rail_urban rail rail_electric rail_fast ship container cable_car subway aircraft drone" speed="13.89" length="258.20" shape="-85.39,-50.29 172.81,-49.26"/>
    </edge>
    <edge id="E3" from="J3" to="J1" priority="-1">
        <lane id="E3_0" index="0" disallow="pedestrian tram rail_urban rail rail_electric rail_fast ship container cable_car subway aircraft drone" speed="13.89" length="107.85" width="2.00" shape="181.59,-39.15 143.61,61.80"/>
        <lane id="E3_1" index="1" disallow="pedestrian tram rail_urban rail rail_electric rail_fast ship container cable_car subway aircraft drone" speed="13.89" length="107.85" shape="179.15,-40.06 141.18,60.88"/>
    </edge>
    <edge id="E4" from="J2" to="J4" priority="-1">
        <lane id="E4_0" index="0" disallow="pedestrian tram rail_urban rail rail_electric rail_fast ship container cable_car subway aircraft drone" speed="13.89" length="41.51" width="2.00" shape="-102.51,-49.45 -134.43,-75.99"/>
        <lane id="E4_1" index="1" disallow="pedestrian tram rail_urban rail rail_electric rail_fast ship container cable_car subway aircraft drone" speed="13.89" length="41.51" shape="-100.85,-51.45 -132.77,-77.99"/>
    </edge>
    <edge id="E5" from="J1" to="J5" priority="-1">
        <lane id="E5_0" index="0" disallow="pedestrian tram rail_urban rail rail_electric rail_fast ship container cable_car subway aircraft drone" speed="13.89" length="33.32" width="2.00" shape="144.83,67.52 168.93,90.52"/>
        <lane id="E5_1" index="1" disallow="pedestrian tram rail_urban rail rail_electric rail_fast ship container cable_car subway aircraft drone" speed="13.89" length="33.32" shape="143.03,69.40 167.14,92.41"/>
    </edge>

    <junction id="J0" type="priority" x="-85.39" y="66.28" incLanes="-E0_0 -E0_1 -E1_0 -E1_1" intLanes=":J0_0_0 :J0_0_1 :J0_2_0 :J0_2_1" shape="-80.61,71.48 -80.61,61.08 -90.98,61.95 -90.47,64.86 -89.47,67.24 -87.99,69.09 -86.02,70.42 -83.56,71.21">
        <request index="0" response="0000" foes="0000" cont="0"/>
        <request index="1" response="0000" foes="0000" cont="0"/>
        <request index="2" response="0000" foes="0000" cont="0"/>
        <request index="3" response="0000" foes="0000" cont="0"/>
    </junction>
    <junction id="J1" type="priority" x="137.44" y="66.28" incLanes="-E5_0 -E5_1 E3_0 E3_1 E0_0 E0_1" intLanes=":J1_0_0 :J1_0_1 :J1_9_0 :J1_3_0 :J1_3_1 :J1_5_0 :J1_6_0 :J1_6_1 :J1_8_0" shape="138.34,74.32 145.52,66.80 144.52,65.43 144.27,64.68 144.19,63.88 144.29,63.04 144.55,62.15 134.81,58.49 133.96,59.92 133.39,60.43 132.71,60.79 131.94,61.00 131.07,61.08 131.07,71.48 134.06,71.62 135.11,71.89 136.07,72.39 137.09,73.18">
        <request index="0" response="000000000" foes="000100000" cont="0"/>
        <request index="1" response="000000000" foes="000100000" cont="0"/>
        <request index="2" response="111000000" foes="111100000" cont="1"/>
        <request index="3" response="100000000" foes="100000000" cont="0"/>
        <request index="4" response="100000000" foes="100000000" cont="0"/>
        <request index="5" response="100000111" foes="100000111" cont="0"/>
        <request index="6" response="000000000" foes="000000100" cont="0"/>
        <request index="7" response="000000000" foes="000000100" cont="0"/>
        <request index="8" response="000000000" foes="000111100" cont="0"/>
    </junction>
    <junction id="J2" type="priority" x="-95.07" y="-48.73" incLanes="E1_0 E1_1 -E2_0 -E2_1 -E4_0 -E4_1" intLanes=":J2_0_0 :J2_0_1 :J2_2_0 :J2_3_0 :J2_3_1 :J2_5_0 :J2_6_0 :J2_6_1 :J2_9_0" shape="-99.44,-38.65 -89.08,-39.52 -88.82,-41.74 -88.33,-42.51 -87.60,-43.06 -86.63,-43.39 -85.41,-43.49 -85.37,-53.89 -87.88,-53.85 -89.83,-53.81 -91.43,-53.92 -92.93,-54.33 -94.54,-55.20 -96.50,-56.68 -103.15,-48.68 -101.37,-46.43 -100.68,-44.90 -100.13,-43.09 -99.72,-41.01">
        <request index="0" response="000100000" foes="000100000" cont="0"/>
        <request index="1" response="000100000" foes="000100000" cont="0"/>
        <request index="2" response="111100000" foes="111100000" cont="0"/>
        <request index="3" response="000000000" foes="100000000" cont="0"/>
        <request index="4" response="000000000" foes="100000000" cont="0"/>
        <request index="5" response="000000000" foes="100000111" cont="0"/>
        <request index="6" response="000000000" foes="000000100" cont="0"/>
        <request index="7" response="000000000" foes="000000100" cont="0"/>
        <request index="8" response="000111000" foes="000111100" cont="1"/>
    </junction>
    <junction id="J3" type="priority" x="180.29" y="-47.63" incLanes="E2_0 E2_1 -E3_0 -E3_1" intLanes=":J3_0_0 :J3_0_1 :J3_2_0 :J3_2_1" shape="172.83,-52.86 172.79,-42.46 182.52,-38.79 183.72,-43.07 183.79,-46.58 182.73,-49.31 180.55,-51.27 177.25,-52.45">
        <request index="0" response="0000" foes="0000" cont="0"/>
        <request index="1" response="0000" foes="0000" cont="0"/>
        <request index="2" response="0000" foes="0000" cont="0"/>
        <request index="3" response="0000" foes="0000" cont="0"/>
    </junction>
    <junction id="J4" type="dead_end" x="-131.75" y="-79.22" incLanes="E4_0 E4_1" intLanes="" shape="-131.75,-79.22 -135.07,-75.22 -131.75,-79.22"/>
    <junction id="J5" type="dead_end" x="166.03" y="93.56" incLanes="E5_0 E5_1" intLanes="" shape="166.03,93.56 169.62,89.80 166.03,93.56"/>

    <junction id=":J1_9_0" type="internal" x="138.58" y="68.82" incLanes=":J1_2_0 E0_0 E0_1" intLanes=":J1_5_0 :J1_6_0 :J1_6_1 :J1_8_0"/>
    <junction id=":J2_9_0" type="internal" x="-96.44" y="-51.35" incLanes=":J2_8_0 -E2_0 -E2_1" intLanes=":J2_2_0 :J2_3_0 :J2_3_1 :J2_5_0"/>

    <connection from="-E0" to="E1" fromLane="0" toLane="0" via=":J0_0_0" dir="l" state="M"/>
    <connection from="-E0" to="E1" fromLane="1" toLane="1" via=":J0_0_1" dir="l" state="M"/>
    <connection from="-E1" to="E0" fromLane="0" toLane="0" via=":J0_2_0" dir="r" state="M"/>
    <connection from="-E1" to="E0" fromLane="1" toLane="1" via=":J0_2_1" dir="r" state="M"/>
    <connection from="-E2" to="-E1" fromLane="0" toLane="0" via=":J2_3_0" dir="r" state="M"/>
    <connection from="-E2" to="-E1" fromLane="1" toLane="1" via=":J2_3_1" dir="r" state="M"/>
    <connection from="-E2" to="E4" fromLane="1" toLane="1" via=":J2_5_0" dir="s" state="M"/>
    <connection from="-E3" to="-E2" fromLane="0" toLane="0" via=":J3_2_0" dir="r" state="M"/>
    <connection from="-E3" to="-E2" fromLane="1" toLane="1" via=":J3_2_1" dir="r" state="M"/>
    <connection from="-E4" to="E2" fromLane="0" toLane="0" via=":J2_6_0" dir="s" state="M"/>
    <connection from="-E4" to="E2" fromLane="1" toLane="1" via=":J2_6_1" dir="s" state="M"/>
    <connection from="-E4" to="-E1" fromLane="1" toLane="1" via=":J2_8_0" dir="l" state="m"/>
    <connection from="-E5" to="-E0" fromLane="0" toLane="0" via=":J1_0_0" dir="s" state="M"/>
    <connection from="-E5" to="-E0" fromLane="1" toLane="1" via=":J1_0_1" dir="s" state="M"/>
    <connection from="-E5" to="-E3" fromLane="1" toLane="1" via=":J1_2_0" dir="l" state="m"/>
    <connection from="E0" to="-E3" fromLane="0" toLane="0" via=":J1_6_0" dir="r" state="M"/>
    <connection from="E0" to="-E3" fromLane="1" toLane="1" via=":J1_6_1" dir="r" state="M"/>
    <connection from="E0" to="E5" fromLane="1" toLane="1" via=":J1_8_0" dir="s" state="M"/>
    <connection from="E1" to="E4" fromLane="0" toLane="0" via=":J2_0_0" dir="r" state="m"/>
    <connection from="E1" to="E4" fromLane="1" toLane="1" via=":J2_0_1" dir="r" state="m"/>
    <connection from="E1" to="E2" fromLane="1" toLane="1" via=":J2_2_0" dir="l" state="m"/>
    <connection from="E2" to="E3" fromLane="0" toLane="0" via=":J3_0_0" dir="l" state="M"/>
    <connection from="E2" to="E3" fromLane="1" toLane="1" via=":J3_0_1" dir="l" state="M"/>
    <connection from="E3" to="E5" fromLane="0" toLane="0" via=":J1_3_0" dir="r" state="m"/>
    <connection from="E3" to="E5" fromLane="1" toLane="1" via=":J1_3_1" dir="r" state="m"/>
    <connection from="E3" to="-E0" fromLane="1" toLane="1" via=":J1_5_0" dir="l" state="m"/>

    <connection from=":J0_0" to="E1" fromLane="0" toLane="0" dir="l" state="M"/>
    <connection from=":J0_0" to="E1" fromLane="1" toLane="1" dir="l" state="M"/>
    <connection from=":J0_2" to="E0" fromLane="0" toLane="0" dir="r" state="M"/>
    <connection from=":J0_2" to="E0" fromLane="1" toLane="1" dir="r" state="M"/>
    <connection from=":J1_0" to="-E0" fromLane="0" toLane="0" dir="s" state="M"/>
    <connection from=":J1_0" to="-E0" fromLane="1" toLane="1" dir="s" state="M"/>
    <connection from=":J1_2" to="-E3" fromLane="0" toLane="1" via=":J1_9_0" dir="l" state="m"/>
    <connection from=":J1_9" to="-E3" fromLane="0" toLane="1" dir="l" state="M"/>
    <connection from=":J1_3" to="E5" fromLane="0" toLane="0" dir="r" state="M"/>
    <connection from=":J1_3" to="E5" fromLane="1" toLane="1" dir="r" state="M"/>
    <connection from=":J1_5" to="-E0" fromLane="0" toLane="1" dir="l" state="M"/>
    <connection from=":J1_6" to="-E3" fromLane="0" toLane="0" dir="r" state="M"/>
    <connection from=":J1_6" to="-E3" fromLane="1" toLane="1" dir="r" state="M"/>
    <connection from=":J1_8" to="E5" fromLane="0" toLane="1" dir="s" state="M"/>
    <connection from=":J2_0" to="E4" fromLane="0" toLane="0" dir="r" state="M"/>
    <connection from=":J2_0" to="E4" fromLane="1" toLane="1" dir="r" state="M"/>
    <connection from=":J2_2" to="E2" fromLane="0" toLane="1" dir="l" state="M"/>
    <connection from=":J2_3" to="-E1" fromLane="0" toLane="0" dir="r" state="M"/>
    <connection from=":J2_3" to="-E1" fromLane="1" toLane="1" dir="r" state="M"/>
    <connection from=":J2_5" to="E4" fromLane="0" toLane="1" dir="s" state="M"/>
    <connection from=":J2_6" to="E2" fromLane="0" toLane="0" dir="s" state="M"/>
    <connection from=":J2_6" to="E2" fromLane="1" toLane="1" dir="s" state="M"/>
    <connection from=":J2_8" to="-E1" fromLane="0" toLane="1" via=":J2_9_0" dir="l" state="m"/>
    <connection from=":J2_9" to="-E1" fromLane="0" toLane="1" dir="l" state="M"/>
    <connection from=":J3_0" to="E3" fromLane="0" toLane="0" dir="l" state="M"/>
    <connection from=":J3_0" to="E3" fromLane="1" toLane="1" dir="l" state="M"/>
    <connection from=":J3_2" to="-E2" fromLane="0" toLane="0" dir="r" state="M"/>
    <connection from=":J3_2" to="-E2" fromLane="1" toLane="1" dir="r" state="M"/>

</net>
